<?xml version="1.0" encoding="UTF-8"?>

<!-- generated on 2022-07-22 12:35:08 by Eclipse SUMO netedit Version 1.13.0
-->


