<?xml version="1.0" encoding="UTF-8"?>

<!-- generated on 2023-05-19 17:34:57 by Eclipse SUMO netedit Version 1.14.1
<configuration xmlns:xsi="http://www.w3.org/2001/XMLSchema-instance" xsi:noNamespaceSchemaLocation="http://sumo.dlr.de/xsd/netconvertConfiguration.xsd">

    <input>
        <sumo-net-file value="D:\Git\MAY1\sumo\network_5l.net.xml"/>
    </input>

    <output>
        <output-file value="D:\Git\MAY1\sumo\network_5l.net.xml"/>
    </output>

    <processing>
        <geometry.min-radius.fix.railways value="false"/>
        <geometry.max-grade.fix value="false"/>
        <offset.disable-normalization value="true"/>
        <lefthand value="false"/>
    </processing>

    <junctions>
        <no-turnarounds value="true"/>
        <junctions.corner-detail value="5"/>
        <junctions.limit-turn-speed value="5.5"/>
        <rectangular-lane-cut value="false"/>
    </junctions>

    <pedestrian>
        <walkingareas value="false"/>
    </pedestrian>

</configuration>
-->

<net version="1.9" junctionCornerDetail="5" limitTurnSpeed="5.50" xmlns:xsi="http://www.w3.org/2001/XMLSchema-instance" xsi:noNamespaceSchemaLocation="http://sumo.dlr.de/xsd/net_file.xsd">

    <location netOffset="0.00,0.00" convBoundary="0.00,0.00,5026.25,0.30" origBoundary="-5000000000.00,-5000000000.00,5000000000.00,5000000000.00" projParameter="!"/>

    <edge id=":J1_0" function="internal">
        <lane id=":J1_0_0" index="0" speed="25.00" length="0.10" shape="1000.00,-14.40 1000.00,-14.40"/>
        <lane id=":J1_0_1" index="1" speed="25.00" length="0.10" shape="1000.00,-11.20 1000.00,-11.20"/>
        <lane id=":J1_0_2" index="2" speed="25.00" length="0.10" shape="1000.00,-8.00 1000.00,-8.00"/>
        <lane id=":J1_0_3" index="3" speed="25.00" length="0.10" shape="1000.00,-4.80 1000.00,-4.80"/>
        <lane id=":J1_0_4" index="4" speed="25.00" length="0.10" shape="1000.00,-1.60 1000.00,-1.60"/>
    </edge>
    <edge id=":J2_0" function="internal">
        <lane id=":J2_0_0" index="0" speed="25.00" length="0.10" shape="2000.00,-14.40 2000.00,-14.40"/>
        <lane id=":J2_0_1" index="1" speed="25.00" length="0.10" shape="2000.00,-11.20 2000.00,-11.20"/>
        <lane id=":J2_0_2" index="2" speed="25.00" length="0.10" shape="2000.00,-8.00 2000.00,-8.00"/>
        <lane id=":J2_0_3" index="3" speed="25.00" length="0.10" shape="2000.00,-4.80 2000.00,-4.80"/>
        <lane id=":J2_0_4" index="4" speed="25.00" length="0.10" shape="2000.00,-1.60 2000.00,-1.60"/>
    </edge>
    <edge id=":J3_0" function="internal">
        <lane id=":J3_0_0" index="0" speed="25.00" length="0.10" shape="3000.00,-14.40 3000.00,-14.40"/>
        <lane id=":J3_0_1" index="1" speed="25.00" length="0.10" shape="3000.00,-11.20 3000.00,-11.20"/>
        <lane id=":J3_0_2" index="2" speed="25.00" length="0.10" shape="3000.00,-8.00 3000.00,-8.00"/>
        <lane id=":J3_0_3" index="3" speed="25.00" length="0.10" shape="3000.00,-4.80 3000.00,-4.80"/>
        <lane id=":J3_0_4" index="4" speed="25.00" length="0.10" shape="3000.00,-1.60 3000.00,-1.60"/>
    </edge>
    <edge id=":J4_0" function="internal">
        <lane id=":J4_0_0" index="0" speed="25.00" length="0.10" shape="4000.00,-14.40 4000.00,-14.40"/>
        <lane id=":J4_0_1" index="1" speed="25.00" length="0.10" shape="4000.00,-11.20 4000.00,-11.20"/>
        <lane id=":J4_0_2" index="2" speed="25.00" length="0.10" shape="4000.00,-8.00 4000.00,-8.00"/>
        <lane id=":J4_0_3" index="3" speed="25.00" length="0.10" shape="4000.00,-4.80 4000.00,-4.80"/>
        <lane id=":J4_0_4" index="4" speed="25.00" length="0.10" shape="4000.00,-1.60 4000.00,-1.60"/>
    </edge>
    <edge id=":J5_0" function="internal">
        <lane id=":J5_0_0" index="0" speed="19.45" length="0.29" shape="5000,-14.40 5000.26,-14.40"/>
        <lane id=":J5_0_1" index="1" speed="19.45" length="0.29" shape="5000,-11.20 5000.23,-11.20"/>
        <lane id=":J5_0_2" index="2" speed="19.45" length="0.29" shape="5000,-8.00 5000.19,-8.00"/>
        <lane id=":J5_0_3" index="3" speed="19.45" length="0.29" shape="5000,-4.80 5000.16,-4.80"/>
        <lane id=":J5_0_4" index="4" speed="19.45" length="0.29" shape="5000,-1.60 5000.12,-1.60"/>
    </edge>

    <edge id="EA" from="J0" to="J1" priority="-1" length="1000.00">
        <lane id="EA_0" index="0" speed="25.00" length="1000.00" shape="0.00,-14.40 1000.00,-14.40"/>
        <lane id="EA_1" index="1" speed="25.00" length="1000.00" shape="0.00,-11.20 1000.00,-11.20"/>
        <lane id="EA_2" index="2" speed="25.00" length="1000.00" shape="0.00,-8.00 1000.00,-8.00"/>
        <lane id="EA_3" index="3" speed="25.00" length="1000.00" shape="0.00,-4.80 1000.00,-4.80"/>
        <lane id="EA_4" index="4" speed="25.00" length="1000.00" shape="0.00,-1.60 1000.00,-1.60"/>
    </edge>
    <edge id="EB" from="J1" to="J2" priority="-1" length="1000.00">
        <lane id="EB_0" index="0" speed="25.00" length="1000.00" shape="1000.00,-14.40 2000.00,-14.40"/>
        <lane id="EB_1" index="1" speed="25.00" length="1000.00" shape="1000.00,-11.20 2000.00,-11.20"/>
        <lane id="EB_2" index="2" speed="25.00" length="1000.00" shape="1000.00,-8.00 2000.00,-8.00"/>
        <lane id="EB_3" index="3" speed="25.00" length="1000.00" shape="1000.00,-4.80 2000.00,-4.80"/>
        <lane id="EB_4" index="4" speed="25.00" length="1000.00" shape="1000.00,-1.60 2000.00,-1.60"/>
    </edge>
    <edge id="EC" from="J2" to="J3" priority="-1" length="1000.00">
        <lane id="EC_0" index="0" speed="25.00" length="1000.00" shape="2000.00,-14.40 3000.00,-14.40"/>
        <lane id="EC_1" index="1" speed="25.00" length="1000.00" shape="2000.00,-11.20 3000.00,-11.20"/>
        <lane id="EC_2" index="2" speed="25.00" length="1000.00" shape="2000.00,-8.00 3000.00,-8.00"/>
        <lane id="EC_3" index="3" speed="25.00" length="1000.00" shape="2000.00,-4.80 3000.00,-4.80"/>
        <lane id="EC_4" index="4" speed="25.00" length="1000.00" shape="2000.00,-1.60 3000.00,-1.60"/>
    </edge>
    <edge id="ED" from="J3" to="J4" priority="-1" length="1000.00">
        <lane id="ED_0" index="0" speed="25.00" length="1000.00" shape="3000.00,-14.40 4000.00,-14.40"/>
        <lane id="ED_1" index="1" speed="25.00" length="1000.00" shape="3000.00,-11.20 4000.00,-11.20"/>
        <lane id="ED_2" index="2" speed="25.00" length="1000.00" shape="3000.00,-8.00 4000.00,-8.00"/>
        <lane id="ED_3" index="3" speed="25.00" length="1000.00" shape="3000.00,-4.80 4000.00,-4.80"/>
        <lane id="ED_4" index="4" speed="25.00" length="1000.00" shape="3000.00,-1.60 4000.00,-1.60"/>
    </edge>
    <edge id="EF" from="J4" to="J5" priority="-1" length="1000.00">
        <lane id="EF_0" index="0" speed="25.00" length="1000.00" shape="4000.00,-14.40 5000,-14.40"/>
        <lane id="EF_1" index="1" speed="25.00" length="1000.00" shape="4000.00,-11.20 5000,-11.20"/>
        <lane id="EF_2" index="2" speed="25.00" length="1000.00" shape="4000.00,-8.00 5000,-8.00"/>
        <lane id="EF_3" index="3" speed="25.00" length="1000.00" shape="4000.00,-4.80 5000,-4.80"/>
        <lane id="EF_4" index="4" speed="25.00" length="1000.00" shape="4000.00,-1.60 5000,-1.60"/>
    </edge>
    <edge id="EG" from="J5" to="J6" priority="-1">
        <lane id="EG_0" index="0" speed="25.00" length="400.00" shape="5000.00,-14.40 5500.00,-14.40"/>
        <lane id="EG_1" index="1" speed="25.00" length="400.00" shape="5000.00,-11.20 5500.00,-11.20"/>
        <lane id="EG_2" index="2" speed="25.00" length="400.00" shape="5000.00,-8.00 5500.00,-8.00"/>
        <lane id="EG_3" index="3" speed="25.00" length="400.00" shape="5000.00,-4.80 5500.00,-4.80"/>
        <lane id="EG_4" index="4" speed="25.00" length="400.00" shape="5000.00,-1.60 5500.00,-1.60"/>
    </edge>

    <junction id="J0" type="dead_end" x="0.00" y="0.00" incLanes="" intLanes="" shape="0.00,0.00 0.00,-16.00"/>
    <junction id="J1" type="priority" x="1000.00" y="0.00" incLanes="EA_0 EA_1 EA_2 EA_3 EA_4" intLanes=":J1_0_0 :J1_0_1 :J1_0_2 :J1_0_3 :J1_0_4" shape="1000.00,0.00 1000.00,-16.00 1000.00,0.00">
        <request index="0" response="00000" foes="00000" cont="0"/>
        <request index="1" response="00000" foes="00000" cont="0"/>
        <request index="2" response="00000" foes="00000" cont="0"/>
        <request index="3" response="00000" foes="00000" cont="0"/>
        <request index="4" response="00000" foes="00000" cont="0"/>
    </junction>
    <junction id="J2" type="priority" x="2000.00" y="0.00" incLanes="EB_0 EB_1 EB_2 EB_3 EB_4" intLanes=":J2_0_0 :J2_0_1 :J2_0_2 :J2_0_3 :J2_0_4" shape="2000.00,0.00 2000.00,-16.00 2000.00,0.00">
        <request index="0" response="00000" foes="00000" cont="0"/>
        <request index="1" response="00000" foes="00000" cont="0"/>
        <request index="2" response="00000" foes="00000" cont="0"/>
        <request index="3" response="00000" foes="00000" cont="0"/>
        <request index="4" response="00000" foes="00000" cont="0"/>
    </junction>
    <junction id="J3" type="priority" x="3000.00" y="0.00" incLanes="EC_0 EC_1 EC_2 EC_3 EC_4" intLanes=":J3_0_0 :J3_0_1 :J3_0_2 :J3_0_3 :J3_0_4" shape="3000.00,0.00 3000.00,-16.00 3000.00,0.00">
        <request index="0" response="00000" foes="00000" cont="0"/>
        <request index="1" response="00000" foes="00000" cont="0"/>
        <request index="2" response="00000" foes="00000" cont="0"/>
        <request index="3" response="00000" foes="00000" cont="0"/>
        <request index="4" response="00000" foes="00000" cont="0"/>
    </junction>
    <junction id="J4" type="priority" x="4000.00" y="0.00" incLanes="ED_0 ED_1 ED_2 ED_3 ED_4" intLanes=":J4_0_0 :J4_0_1 :J4_0_2 :J4_0_3 :J4_0_4" shape="4000.00,0.00 4000.00,-16.00 4000.00,0.00">
        <request index="0" response="00000" foes="00000" cont="0"/>
        <request index="1" response="00000" foes="00000" cont="0"/>
        <request index="2" response="00000" foes="00000" cont="0"/>
        <request index="3" response="00000" foes="00000" cont="0"/>
        <request index="4" response="00000" foes="00000" cont="0"/>
    </junction>
    <junction id="J5" type="priority" x="5000.00" y="0.00" incLanes="EF_0 EF_1 EF_2 EF_3 EF_4" intLanes=":J5_0_0 :J5_0_1 :J5_0_2 :J5_0_3 :J5_0_4" shape="5000.10,0.00 5000.28,-16.00 5000,-16.00 5000,0.00">
        <request index="0" response="00000" foes="00000" cont="0"/>
        <request index="1" response="00000" foes="00000" cont="0"/>
        <request index="2" response="00000" foes="00000" cont="0"/>
        <request index="3" response="00000" foes="00000" cont="0"/>
        <request index="4" response="00000" foes="00000" cont="0"/>
    </junction>
    <junction id="J6" type="dead_end" x="5500.00" y="0.00" incLanes="EG_0 EG_1 EG_2 EG_3 EG_4" intLanes=""/>

    <connection from="EA" to="EB" fromLane="0" toLane="0" via=":J1_0_0" dir="s" state="M"/>
    <connection from="EA" to="EB" fromLane="1" toLane="1" via=":J1_0_1" dir="s" state="M"/>
    <connection from="EA" to="EB" fromLane="2" toLane="2" via=":J1_0_2" dir="s" state="M"/>
    <connection from="EA" to="EB" fromLane="3" toLane="3" via=":J1_0_3" dir="s" state="M"/>
    <connection from="EA" to="EB" fromLane="4" toLane="4" via=":J1_0_4" dir="s" state="M"/>
    <connection from="EB" to="EC" fromLane="0" toLane="0" via=":J2_0_0" dir="s" state="M"/>
    <connection from="EB" to="EC" fromLane="1" toLane="1" via=":J2_0_1" dir="s" state="M"/>
    <connection from="EB" to="EC" fromLane="2" toLane="2" via=":J2_0_2" dir="s" state="M"/>
    <connection from="EB" to="EC" fromLane="3" toLane="3" via=":J2_0_3" dir="s" state="M"/>
    <connection from="EB" to="EC" fromLane="4" toLane="4" via=":J2_0_4" dir="s" state="M"/>
    <connection from="EC" to="ED" fromLane="0" toLane="0" via=":J3_0_0" dir="s" state="M"/>
    <connection from="EC" to="ED" fromLane="1" toLane="1" via=":J3_0_1" dir="s" state="M"/>
    <connection from="EC" to="ED" fromLane="2" toLane="2" via=":J3_0_2" dir="s" state="M"/>
    <connection from="EC" to="ED" fromLane="3" toLane="3" via=":J3_0_3" dir="s" state="M"/>
    <connection from="EC" to="ED" fromLane="4" toLane="4" via=":J3_0_4" dir="s" state="M"/>
    <connection from="ED" to="EF" fromLane="0" toLane="0" via=":J4_0_0" dir="s" state="M"/>
    <connection from="ED" to="EF" fromLane="1" toLane="1" via=":J4_0_1" dir="s" state="M"/>
    <connection from="ED" to="EF" fromLane="2" toLane="2" via=":J4_0_2" dir="s" state="M"/>
    <connection from="ED" to="EF" fromLane="3" toLane="3" via=":J4_0_3" dir="s" state="M"/>
    <connection from="ED" to="EF" fromLane="4" toLane="4" via=":J4_0_4" dir="s" state="M"/>
    <connection from="EF" to="EG" fromLane="0" toLane="0" via=":J5_0_0" dir="s" state="M"/>
    <connection from="EF" to="EG" fromLane="1" toLane="1" via=":J5_0_1" dir="s" state="M"/>
    <connection from="EF" to="EG" fromLane="2" toLane="2" via=":J5_0_2" dir="s" state="M"/>
    <connection from="EF" to="EG" fromLane="3" toLane="3" via=":J5_0_3" dir="s" state="M"/>
    <connection from="EF" to="EG" fromLane="4" toLane="4" via=":J5_0_4" dir="s" state="M"/>

    <connection from=":J1_0" to="EB" fromLane="0" toLane="0" dir="s" state="M"/>
    <connection from=":J1_0" to="EB" fromLane="1" toLane="1" dir="s" state="M"/>
    <connection from=":J1_0" to="EB" fromLane="2" toLane="2" dir="s" state="M"/>
    <connection from=":J1_0" to="EB" fromLane="3" toLane="3" dir="s" state="M"/>
    <connection from=":J1_0" to="EB" fromLane="4" toLane="4" dir="s" state="M"/>
    <connection from=":J2_0" to="EC" fromLane="0" toLane="0" dir="s" state="M"/>
    <connection from=":J2_0" to="EC" fromLane="1" toLane="1" dir="s" state="M"/>
    <connection from=":J2_0" to="EC" fromLane="2" toLane="2" dir="s" state="M"/>
    <connection from=":J2_0" to="EC" fromLane="3" toLane="3" dir="s" state="M"/>
    <connection from=":J2_0" to="EC" fromLane="4" toLane="4" dir="s" state="M"/>
    <connection from=":J3_0" to="ED" fromLane="0" toLane="0" dir="s" state="M"/>
    <connection from=":J3_0" to="ED" fromLane="1" toLane="1" dir="s" state="M"/>
    <connection from=":J3_0" to="ED" fromLane="2" toLane="2" dir="s" state="M"/>
    <connection from=":J3_0" to="ED" fromLane="3" toLane="3" dir="s" state="M"/>
    <connection from=":J3_0" to="ED" fromLane="4" toLane="4" dir="s" state="M"/>
    <connection from=":J4_0" to="EF" fromLane="0" toLane="0" dir="s" state="M"/>
    <connection from=":J4_0" to="EF" fromLane="1" toLane="1" dir="s" state="M"/>
    <connection from=":J4_0" to="EF" fromLane="2" toLane="2" dir="s" state="M"/>
    <connection from=":J4_0" to="EF" fromLane="3" toLane="3" dir="s" state="M"/>
    <connection from=":J4_0" to="EF" fromLane="4" toLane="4" dir="s" state="M"/>
    <connection from=":J5_0" to="EG" fromLane="0" toLane="0" dir="s" state="M"/>
    <connection from=":J5_0" to="EG" fromLane="1" toLane="1" dir="s" state="M"/>
    <connection from=":J5_0" to="EG" fromLane="2" toLane="2" dir="s" state="M"/>
    <connection from=":J5_0" to="EG" fromLane="3" toLane="3" dir="s" state="M"/>
    <connection from=":J5_0" to="EG" fromLane="4" toLane="4" dir="s" state="M"/>

</net>
