<?xml version="1.0" encoding="UTF-8"?>

<!-- generated on 2022-08-14 15:49:22 by Eclipse SUMO netedit Version 1.13.0
<configuration xmlns:xsi="http://www.w3.org/2001/XMLSchema-instance" xsi:noNamespaceSchemaLocation="http://sumo.dlr.de/xsd/netconvertConfiguration.xsd">

    <input>
        <sumo-net-file value="E:\condaProject\sumo_test01\sumo\one_way.net.xml"/>
    </input>

    <output>
        <output-file value="E:\condaProject\sumo_test01\sumo\one_way.net.xml"/>
    </output>

    <processing>
        <geometry.min-radius.fix.railways value="false"/>
        <geometry.max-grade.fix value="false"/>
        <offset.disable-normalization value="true"/>
        <lefthand value="false"/>
    </processing>

    <junctions>
        <no-turnarounds value="true"/>
        <junctions.corner-detail value="5"/>
        <junctions.limit-turn-speed value="5.5"/>
        <rectangular-lane-cut value="false"/>
    </junctions>

    <pedestrian>
        <walkingareas value="false"/>
    </pedestrian>

    <report>
        <aggregate-warnings value="5"/>
    </report>

</configuration>
-->

<net version="1.9" junctionCornerDetail="5" limitTurnSpeed="5.50" xmlns:xsi="http://www.w3.org/2001/XMLSchema-instance" xsi:noNamespaceSchemaLocation="http://sumo.dlr.de/xsd/net_file.xsd">

    <location netOffset="0.00,0.00" convBoundary="0.00,0.00,3500.00,0.00" origBoundary="-10000000000.00,-10000000000.00,10000000000.00,10000000000.00" projParameter="!"/>

    <edge id=":C1_0" function="internal">
        <lane id=":C1_0_0" index="0" speed="25.00" length="0.10" shape="3100.00,-8.00 3100.00,-8.00"/>
        <lane id=":C1_0_1" index="1" speed="25.00" length="0.10" shape="3100.00,-4.80 3100.00,-4.80"/>
        <lane id=":C1_0_2" index="2" speed="25.00" length="0.10" shape="3100.00,-1.60 3100.00,-1.60"/>
    </edge>

    <edge id="E0" from="C0" to="C1" priority="-1" length="3100.00">
        <lane id="E0_0" index="0" speed="25.00" length="3100.00" shape="0.00,-8.00 3100.00,-8.00"/>
        <lane id="E0_1" index="1" speed="25.00" length="3100.00" shape="0.00,-4.80 3100.00,-4.80"/>
        <lane id="E0_2" index="2" speed="25.00" length="3100.00" shape="0.00,-1.60 3100.00,-1.60"/>
    </edge>
    <edge id="E1" from="C1" to="C2" priority="-1">
        <lane id="E1_0" index="0" speed="25.00" length="400.00" shape="3100.00,-8.00 3500.00,-8.00"/>
        <lane id="E1_1" index="1" speed="25.00" length="400.00" shape="3100.00,-4.80 3500.00,-4.80"/>
        <lane id="E1_2" index="2" speed="25.00" length="400.00" shape="3100.00,-1.60 3500.00,-1.60"/>
    </edge>

    <junction id="C0" type="dead_end" x="0.00" y="0.00" incLanes="" intLanes="" shape="0.00,0.00 0.00,-9.60"/>
    <junction id="C1" type="priority" x="3100.00" y="0.00" incLanes="E0_0 E0_1 E0_2" intLanes=":C1_0_0 :C1_0_1 :C1_0_2" shape="3100.00,0.00 3100.00,-9.60 3100.00,0.00">
        <request index="0" response="000" foes="000" cont="0"/>
        <request index="1" response="000" foes="000" cont="0"/>
        <request index="2" response="000" foes="000" cont="0"/>
    </junction>
    <junction id="C2" type="dead_end" x="3500.00" y="0.00" incLanes="E1_0 E1_1 E1_2" intLanes="" shape="3500.00,-9.60 3500.00,0.00"/>

    <connection from="E0" to="E1" fromLane="0" toLane="0" via=":C1_0_0" dir="s" state="M"/>
    <connection from="E0" to="E1" fromLane="1" toLane="1" via=":C1_0_1" dir="s" state="M"/>
    <connection from="E0" to="E1" fromLane="2" toLane="2" via=":C1_0_2" dir="s" state="M"/>

    <connection from=":C1_0" to="E1" fromLane="0" toLane="0" dir="s" state="M"/>
    <connection from=":C1_0" to="E1" fromLane="1" toLane="1" dir="s" state="M"/>
    <connection from=":C1_0" to="E1" fromLane="2" toLane="2" dir="s" state="M"/>

</net>
