<?xml version="1.0" encoding="UTF-8"?>

<!-- generated on 2022-08-14 15:49:22 by Eclipse SUMO netedit Version 1.13.0
<configuration xmlns:xsi="http://www.w3.org/2001/XMLSchema-instance" xsi:noNamespaceSchemaLocation="http://sumo.dlr.de/xsd/netconvertConfiguration.xsd">

    <input>
        <sumo-net-file value="E:\condaProject\sumo_test01\sumo\one_way.net.xml"/>
    </input>

    <output>
        <output-file value="E:\condaProject\sumo_test01\sumo\one_way.net.xml"/>
    </output>

    <processing>
        <geometry.min-radius.fix.railways value="false"/>
        <geometry.max-grade.fix value="false"/>
        <offset.disable-normalization value="true"/>
        <lefthand value="false"/>
    </processing>

    <junctions>
        <no-turnarounds value="true"/>
        <junctions.corner-detail value="5"/>
        <junctions.limit-turn-speed value="5.5"/>
        <rectangular-lane-cut value="false"/>
    </junctions>

    <pedestrian>
        <walkingareas value="false"/>
    </pedestrian>

    <report>
        <aggregate-warnings value="5"/>
    </report>

</configuration>
-->

<net version="1.9" junctionCornerDetail="5" limitTurnSpeed="5.50" xmlns:xsi="http://www.w3.org/2001/XMLSchema-instance" xsi:noNamespaceSchemaLocation="http://sumo.dlr.de/xsd/net_file.xsd">

    <location netOffset="0.00,0.00" convBoundary="0.00,0.00,3500.00,0.00" origBoundary="-10000000000.00,-10000000000.00,10000000000.00,10000000000.00" projParameter="!"/>

    <edge id=":C1_0" function="internal">
        <lane id=":C1_0_0" index="0" speed="25.00" length="0.10" shape="3100.00,-14.40 3100.00,-14.40"/>
        <lane id=":C1_0_1" index="1" speed="25.00" length="0.10" shape="3100.00,-11.20 3100.00,-11.20"/>
        <lane id=":C1_0_2" index="2" speed="25.00" length="0.10" shape="3100.00,-8.00 3100.00,-8.00"/>
        <lane id=":C1_0_3" index="3" speed="25.00" length="0.10" shape="3100.00,-4.80 3100.00,-4.80"/>
        <lane id=":C1_0_4" index="4" speed="25.00" length="0.10" shape="3100.00,-1.60 3100.00,-1.60"/>
    </edge>

    <edge id="EA" from="C0" to="C1" priority="-1" length="3100.00">
        <lane id="EA_0" index="0" speed="25.00" length="3100.00" shape="0.00,-14.40 3100.00,-14.40"/>
        <lane id="EA_1" index="1" speed="25.00" length="3100.00" shape="0.00,-11.20 3100.00,-11.20"/>
        <lane id="EA_2" index="2" speed="25.00" length="3100.00" shape="0.00,-8.00 3100.00,-8.00"/>
        <lane id="EA_3" index="3" speed="25.00" length="3100.00" shape="0.00,-4.80 3100.00,-4.80"/>
        <lane id="EA_4" index="4" speed="25.00" length="3100.00" shape="0.00,-1.60 3100.00,-1.60"/>
    </edge>
    <edge id="EB" from="C1" to="C2" priority="-1">
        <lane id="EB_0" index="0" speed="25.00" length="400.00" shape="3100.00,-14.40 3500.00,-14.40"/>
        <lane id="EB_1" index="1" speed="25.00" length="400.00" shape="3100.00,-11.20 3500.00,-11.20"/>
        <lane id="EB_2" index="2" speed="25.00" length="400.00" shape="3100.00,-8.00 3500.00,-8.00"/>
        <lane id="EB_3" index="3" speed="25.00" length="400.00" shape="3100.00,-4.80 3500.00,-4.80"/>
        <lane id="EB_4" index="4" speed="25.00" length="400.00" shape="3100.00,-1.60 3500.00,-1.60"/>
    </edge>

    <junction id="C0" type="dead_end" x="0.00" y="0.00" incLanes="" intLanes="" shape="0.00,0.00 0.00,-16.00"/>
    <junction id="C1" type="priority" x="3100.00" y="0.00" incLanes="EA_0 EA_1 EA_2 EA_3 EA_4" 
                intLanes=":C1_0_0 :C1_0_1 :C1_0_2 :C1_0_3 :C1_0_4" shape="3100.00,0.00 3100.00,-16.00 3100.00,0.00">
        <request index="0" response="00000" foes="00000" cont="0"/>
        <request index="1" response="00000" foes="00000" cont="0"/>
        <request index="2" response="00000" foes="00000" cont="0"/>
        <request index="3" response="00000" foes="00000" cont="0"/>
        <request index="4" response="00000" foes="00000" cont="0"/>
    </junction>
    <junction id="C2" type="dead_end" x="3500.00" y="0.00" incLanes="EB_0 EB_1 EB_2 EB_3 EB_4" 
                intLanes="" shape="3500.00,-16.00 3500.00,0.00"/>

    <connection from="EA" to="EB" fromLane="0" toLane="0" via=":C1_0_0" dir="s" state="M"/>
    <connection from="EA" to="EB" fromLane="1" toLane="1" via=":C1_0_1" dir="s" state="M"/>
    <connection from="EA" to="EB" fromLane="2" toLane="2" via=":C1_0_2" dir="s" state="M"/>
    <connection from="EA" to="EB" fromLane="3" toLane="3" via=":C1_0_3" dir="s" state="M"/>
    <connection from="EA" to="EB" fromLane="4" toLane="4" via=":C1_0_4" dir="s" state="M"/>

    <connection from=":C1_0" to="EB" fromLane="0" toLane="0" dir="s" state="M"/>
    <connection from=":C1_0" to="EB" fromLane="1" toLane="1" dir="s" state="M"/>
    <connection from=":C1_0" to="EB" fromLane="2" toLane="2" dir="s" state="M"/>
    <connection from=":C1_0" to="EB" fromLane="3" toLane="3" dir="s" state="M"/>
    <connection from=":C1_0" to="EB" fromLane="4" toLane="4" dir="s" state="M"/>

</net>
