<routes>
    <vType id="CarA" length="5" maxSpeed="25" carFollowModel="Krauss" width='1.6' tau="0.0001" minGap="0" accel="0.0001"  decel="0.004"/>
    <vType id="CarB" length="5" maxSpeed="25" carFollowModel="Krauss" width='1.6' tau="1" minGap="0" accel="3"  decel="3"/>
    <route id="r1" edges="EA EB" />
    <vehicle id="2_1" type="CarA" route="r1" depart="0.000000" departLane="2" departSpeed="25" arrivalLane="2" color="247,247,247" />
    <vehicle id="2_2" type="CarA" route="r1" depart="0.001000" departLane="2" departSpeed="25" arrivalLane="2" color="247,247,247" />
    <vehicle id="2_3" type="CarA" route="r1" depart="0.002000" departLane="2" departSpeed="25" arrivalLane="2" color="247,247,247" />
    <vehicle id="2_4" type="CarA" route="r1" depart="0.003000" departLane="2" departSpeed="25" arrivalLane="2" color="247,247,247" />
    <vehicle id="2_5" type="CarA" route="r1" depart="0.004000" departLane="2" departSpeed="25" arrivalLane="2" color="247,247,247" />
    <vehicle id="2_6" type="CarA" route="r1" depart="0.005000" departLane="2" departSpeed="25" arrivalLane="2" color="247,247,247" />
    <vehicle id="2_7" type="CarA" route="r1" depart="0.006000" departLane="2" departSpeed="25" arrivalLane="2" color="247,247,247" />
    <vehicle id="2_8" type="CarA" route="r1" depart="0.007000" departLane="2" departSpeed="25" arrivalLane="2" color="247,247,247" />
    <vehicle id="2_9" type="CarA" route="r1" depart="0.008000" departLane="2" departSpeed="25" arrivalLane="2" color="247,247,247" />
    <vehicle id="2_10" type="CarA" route="r1" depart="0.009000" departLane="2" departSpeed="25" arrivalLane="2" color="247,247,247" />
    <vehicle id="2_11" type="CarA" route="r1" depart="0.010000" departLane="2" departSpeed="25" arrivalLane="2" color="247,247,247" />
    <vehicle id="2_12" type="CarA" route="r1" depart="0.011000" departLane="2" departSpeed="25" arrivalLane="2" color="247,247,247" />
    <vehicle id="2_13" type="CarA" route="r1" depart="0.012000" departLane="2" departSpeed="25" arrivalLane="2" color="247,247,247" />
    <vehicle id="2_14" type="CarA" route="r1" depart="0.013000" departLane="2" departSpeed="25" arrivalLane="2" color="247,247,247" />
    <vehicle id="2_15" type="CarA" route="r1" depart="0.014000" departLane="2" departSpeed="25" arrivalLane="2" color="247,247,247" />
    <vehicle id="2_16" type="CarA" route="r1" depart="0.015000" departLane="2" departSpeed="25" arrivalLane="2" color="247,247,247" />
    <vehicle id="2_17" type="CarA" route="r1" depart="0.016000" departLane="2" departSpeed="25" arrivalLane="2" color="247,247,247" />
    <vehicle id="2_18" type="CarA" route="r1" depart="0.017000" departLane="2" departSpeed="25" arrivalLane="2" color="247,247,247" />
    <vehicle id="2_19" type="CarA" route="r1" depart="0.018000" departLane="2" departSpeed="25" arrivalLane="2" color="247,247,247" />
    <vehicle id="2_20" type="CarA" route="r1" depart="0.019000" departLane="2" departSpeed="25" arrivalLane="2" color="247,247,247" />
    <vehicle id="2_21" type="CarA" route="r1" depart="0.020000" departLane="2" departSpeed="25" arrivalLane="2" color="247,247,247" />
    <vehicle id="2_22" type="CarA" route="r1" depart="0.021000" departLane="2" departSpeed="25" arrivalLane="2" color="247,247,247" />
    <vehicle id="2_23" type="CarA" route="r1" depart="0.022000" departLane="2" departSpeed="25" arrivalLane="2" color="247,247,247" />
    <vehicle id="2_24" type="CarA" route="r1" depart="0.023000" departLane="2" departSpeed="25" arrivalLane="2" color="247,247,247" />
    <vehicle id="2_25" type="CarA" route="r1" depart="0.024000" departLane="2" departSpeed="25" arrivalLane="2" color="247,247,247" />
    <vehicle id="2_26" type="CarA" route="r1" depart="0.025000" departLane="2" departSpeed="25" arrivalLane="2" color="247,247,247" />
    <vehicle id="2_27" type="CarA" route="r1" depart="0.026000" departLane="2" departSpeed="25" arrivalLane="2" color="247,247,247" />
    <vehicle id="2_28" type="CarA" route="r1" depart="0.027000" departLane="2" departSpeed="25" arrivalLane="2" color="247,247,247" />
    <vehicle id="2_29" type="CarA" route="r1" depart="0.028000" departLane="2" departSpeed="25" arrivalLane="2" color="247,247,247" />
    <vehicle id="2_30" type="CarA" route="r1" depart="0.029000" departLane="2" departSpeed="25" arrivalLane="2" color="247,247,247" />
    <vehicle id="2_31" type="CarA" route="r1" depart="0.030000" departLane="2" departSpeed="25" arrivalLane="2" color="247,247,247" />
    <vehicle id="2_32" type="CarA" route="r1" depart="0.031000" departLane="2" departSpeed="25" arrivalLane="2" color="247,247,247" />
    <vehicle id="2_33" type="CarA" route="r1" depart="0.032000" departLane="2" departSpeed="25" arrivalLane="2" color="247,247,247" />
    <vehicle id="2_34" type="CarA" route="r1" depart="0.033000" departLane="2" departSpeed="25" arrivalLane="2" color="247,247,247" />
    <vehicle id="2_35" type="CarA" route="r1" depart="0.034000" departLane="2" departSpeed="25" arrivalLane="2" color="247,247,247" />
    <vehicle id="2_36" type="CarA" route="r1" depart="0.035000" departLane="2" departSpeed="25" arrivalLane="2" color="247,247,247" />
    <vehicle id="2_37" type="CarA" route="r1" depart="0.036000" departLane="2" departSpeed="25" arrivalLane="2" color="247,247,247" />
    <vehicle id="2_38" type="CarA" route="r1" depart="0.037000" departLane="2" departSpeed="25" arrivalLane="2" color="247,247,247" />
    <vehicle id="2_39" type="CarA" route="r1" depart="0.038000" departLane="2" departSpeed="25" arrivalLane="2" color="247,247,247" />
    <vehicle id="2_40" type="CarA" route="r1" depart="0.039000" departLane="2" departSpeed="25" arrivalLane="2" color="247,247,247" />
    <vehicle id="2_41" type="CarA" route="r1" depart="0.040000" departLane="2" departSpeed="25" arrivalLane="2" color="247,247,247" />
    <vehicle id="2_42" type="CarA" route="r1" depart="0.041000" departLane="2" departSpeed="25" arrivalLane="2" color="247,247,247" />
    <vehicle id="2_43" type="CarA" route="r1" depart="0.042000" departLane="2" departSpeed="25" arrivalLane="2" color="247,247,247" />
    <vehicle id="2_44" type="CarA" route="r1" depart="0.043000" departLane="2" departSpeed="25" arrivalLane="2" color="247,247,247" />
    <vehicle id="2_45" type="CarA" route="r1" depart="0.044000" departLane="2" departSpeed="25" arrivalLane="2" color="247,247,247" />
    <vehicle id="2_46" type="CarA" route="r1" depart="0.045000" departLane="2" departSpeed="25" arrivalLane="2" color="247,247,247" />
    <vehicle id="2_47" type="CarA" route="r1" depart="0.046000" departLane="2" departSpeed="25" arrivalLane="2" color="247,247,247" />
    <vehicle id="2_48" type="CarA" route="r1" depart="0.047000" departLane="2" departSpeed="25" arrivalLane="2" color="247,247,247" />
    <vehicle id="2_49" type="CarA" route="r1" depart="0.048000" departLane="2" departSpeed="25" arrivalLane="2" color="247,247,247" />
    <vehicle id="2_50" type="CarA" route="r1" depart="0.049000" departLane="2" departSpeed="25" arrivalLane="2" color="247,247,247" />
    <vehicle id="2_51" type="CarA" route="r1" depart="0.050000" departLane="2" departSpeed="25" arrivalLane="2" color="247,247,247" />
    <vehicle id="2_52" type="CarA" route="r1" depart="0.051000" departLane="2" departSpeed="25" arrivalLane="2" color="247,247,247" />
    <vehicle id="2_53" type="CarA" route="r1" depart="0.052000" departLane="2" departSpeed="25" arrivalLane="2" color="247,247,247" />
    <vehicle id="2_54" type="CarA" route="r1" depart="0.053000" departLane="2" departSpeed="25" arrivalLane="2" color="247,247,247" />
    <vehicle id="2_55" type="CarA" route="r1" depart="0.054000" departLane="2" departSpeed="25" arrivalLane="2" color="247,247,247" />
    <vehicle id="2_56" type="CarA" route="r1" depart="0.055000" departLane="2" departSpeed="25" arrivalLane="2" color="247,247,247" />
    <vehicle id="2_57" type="CarA" route="r1" depart="0.056000" departLane="2" departSpeed="25" arrivalLane="2" color="247,247,247" />
    <vehicle id="2_58" type="CarA" route="r1" depart="0.057000" departLane="2" departSpeed="25" arrivalLane="2" color="247,247,247" />
    <vehicle id="2_59" type="CarA" route="r1" depart="0.058000" departLane="2" departSpeed="25" arrivalLane="2" color="247,247,247" />
    <vehicle id="2_60" type="CarA" route="r1" depart="0.059000" departLane="2" departSpeed="25" arrivalLane="2" color="247,247,247" />
    <vehicle id="2_61" type="CarA" route="r1" depart="0.060000" departLane="2" departSpeed="25" arrivalLane="2" color="247,247,247" />
    <vehicle id="2_62" type="CarA" route="r1" depart="0.061000" departLane="2" departSpeed="25" arrivalLane="2" color="247,247,247" />
    <vehicle id="2_63" type="CarA" route="r1" depart="0.062000" departLane="2" departSpeed="25" arrivalLane="2" color="247,247,247" />
    <vehicle id="2_64" type="CarA" route="r1" depart="0.063000" departLane="2" departSpeed="25" arrivalLane="2" color="247,247,247" />
    <vehicle id="2_65" type="CarA" route="r1" depart="0.064000" departLane="2" departSpeed="25" arrivalLane="2" color="247,247,247" />
    <vehicle id="2_66" type="CarA" route="r1" depart="0.065000" departLane="2" departSpeed="25" arrivalLane="2" color="247,247,247" />
    <vehicle id="2_67" type="CarA" route="r1" depart="0.066000" departLane="2" departSpeed="25" arrivalLane="2" color="247,247,247" />
    <vehicle id="2_68" type="CarA" route="r1" depart="0.067000" departLane="2" departSpeed="25" arrivalLane="2" color="247,247,247" />
    <vehicle id="2_69" type="CarA" route="r1" depart="0.068000" departLane="2" departSpeed="25" arrivalLane="2" color="247,247,247" />
    <vehicle id="2_70" type="CarA" route="r1" depart="0.069000" departLane="2" departSpeed="25" arrivalLane="2" color="247,247,247" />
    <vehicle id="2_71" type="CarA" route="r1" depart="0.070000" departLane="2" departSpeed="25" arrivalLane="2" color="247,247,247" />
    <vehicle id="2_72" type="CarA" route="r1" depart="0.071000" departLane="2" departSpeed="25" arrivalLane="2" color="247,247,247" />
    <vehicle id="2_73" type="CarA" route="r1" depart="0.072000" departLane="2" departSpeed="25" arrivalLane="2" color="247,247,247" />
    <vehicle id="2_74" type="CarA" route="r1" depart="0.073000" departLane="2" departSpeed="25" arrivalLane="2" color="247,247,247" />
    <vehicle id="2_75" type="CarA" route="r1" depart="0.074000" departLane="2" departSpeed="25" arrivalLane="2" color="247,247,247" />
    <vehicle id="2_76" type="CarA" route="r1" depart="0.075000" departLane="2" departSpeed="25" arrivalLane="2" color="247,247,247" />
    <vehicle id="2_77" type="CarA" route="r1" depart="0.076000" departLane="2" departSpeed="25" arrivalLane="2" color="247,247,247" />
    <vehicle id="2_78" type="CarA" route="r1" depart="0.077000" departLane="2" departSpeed="25" arrivalLane="2" color="247,247,247" />
    <vehicle id="2_79" type="CarA" route="r1" depart="0.078000" departLane="2" departSpeed="25" arrivalLane="2" color="247,247,247" />
    <vehicle id="2_80" type="CarA" route="r1" depart="0.079000" departLane="2" departSpeed="25" arrivalLane="2" color="247,247,247" />
    <vehicle id="2_81" type="CarA" route="r1" depart="0.080000" departLane="2" departSpeed="25" arrivalLane="2" color="247,247,247" />
    <vehicle id="2_82" type="CarA" route="r1" depart="0.081000" departLane="2" departSpeed="25" arrivalLane="2" color="247,247,247" />
    <vehicle id="2_83" type="CarA" route="r1" depart="0.082000" departLane="2" departSpeed="25" arrivalLane="2" color="247,247,247" />
    <vehicle id="2_84" type="CarA" route="r1" depart="0.083000" departLane="2" departSpeed="25" arrivalLane="2" color="247,247,247" />
    <vehicle id="2_85" type="CarA" route="r1" depart="0.084000" departLane="2" departSpeed="25" arrivalLane="2" color="247,247,247" />
    <vehicle id="2_86" type="CarA" route="r1" depart="0.085000" departLane="2" departSpeed="25" arrivalLane="2" color="247,247,247" />
    <vehicle id="2_87" type="CarA" route="r1" depart="0.086000" departLane="2" departSpeed="25" arrivalLane="2" color="247,247,247" />
    <vehicle id="2_88" type="CarA" route="r1" depart="0.087000" departLane="2" departSpeed="25" arrivalLane="2" color="247,247,247" />
    <vehicle id="2_89" type="CarA" route="r1" depart="0.088000" departLane="2" departSpeed="25" arrivalLane="2" color="247,247,247" />
    <vehicle id="2_90" type="CarA" route="r1" depart="0.089000" departLane="2" departSpeed="25" arrivalLane="2" color="247,247,247" />
    <vehicle id="2_91" type="CarA" route="r1" depart="0.090000" departLane="2" departSpeed="25" arrivalLane="2" color="247,247,247" />
    <vehicle id="2_92" type="CarA" route="r1" depart="0.091000" departLane="2" departSpeed="25" arrivalLane="2" color="247,247,247" />
    <vehicle id="2_93" type="CarA" route="r1" depart="0.092000" departLane="2" departSpeed="25" arrivalLane="2" color="247,247,247" />
    <vehicle id="2_94" type="CarA" route="r1" depart="0.093000" departLane="2" departSpeed="25" arrivalLane="2" color="247,247,247" />
    <vehicle id="2_95" type="CarA" route="r1" depart="0.094000" departLane="2" departSpeed="25" arrivalLane="2" color="247,247,247" />
    <vehicle id="2_96" type="CarA" route="r1" depart="0.095000" departLane="2" departSpeed="25" arrivalLane="2" color="247,247,247" />
    <vehicle id="2_97" type="CarA" route="r1" depart="0.096000" departLane="2" departSpeed="25" arrivalLane="2" color="247,247,247" />
    <vehicle id="2_98" type="CarA" route="r1" depart="0.097000" departLane="2" departSpeed="25" arrivalLane="2" color="247,247,247" />
    <vehicle id="2_99" type="CarA" route="r1" depart="0.098000" departLane="2" departSpeed="25" arrivalLane="2" color="247,247,247" />
    <vehicle id="2_100" type="CarA" route="r1" depart="0.099000" departLane="2" departSpeed="25" arrivalLane="2" color="247,247,247" />
    <vehicle id="2_101" type="CarA" route="r1" depart="0.100000" departLane="2" departSpeed="25" arrivalLane="2" color="247,247,247" />
    <vehicle id="2_102" type="CarA" route="r1" depart="0.101000" departLane="2" departSpeed="25" arrivalLane="2" color="247,247,247" />
    <vehicle id="2_103" type="CarA" route="r1" depart="0.102000" departLane="2" departSpeed="25" arrivalLane="2" color="247,247,247" />
    <vehicle id="2_104" type="CarA" route="r1" depart="0.103000" departLane="2" departSpeed="25" arrivalLane="2" color="247,247,247" />
    <vehicle id="2_105" type="CarA" route="r1" depart="0.104000" departLane="2" departSpeed="25" arrivalLane="2" color="247,247,247" />
    <vehicle id="2_106" type="CarA" route="r1" depart="0.105000" departLane="2" departSpeed="25" arrivalLane="2" color="247,247,247" />
    <vehicle id="2_107" type="CarA" route="r1" depart="0.106000" departLane="2" departSpeed="25" arrivalLane="2" color="247,247,247" />
    <vehicle id="2_108" type="CarA" route="r1" depart="0.107000" departLane="2" departSpeed="25" arrivalLane="2" color="247,247,247" />
    <vehicle id="2_109" type="CarA" route="r1" depart="0.108000" departLane="2" departSpeed="25" arrivalLane="2" color="247,247,247" />
    <vehicle id="2_110" type="CarA" route="r1" depart="0.109000" departLane="2" departSpeed="25" arrivalLane="2" color="247,247,247" />
    <vehicle id="2_111" type="CarA" route="r1" depart="0.110000" departLane="2" departSpeed="25" arrivalLane="2" color="247,247,247" />
    <vehicle id="2_112" type="CarA" route="r1" depart="0.111000" departLane="2" departSpeed="25" arrivalLane="2" color="247,247,247" />
    <vehicle id="2_113" type="CarA" route="r1" depart="0.112000" departLane="2" departSpeed="25" arrivalLane="2" color="247,247,247" />
    <vehicle id="2_114" type="CarA" route="r1" depart="0.113000" departLane="2" departSpeed="25" arrivalLane="2" color="247,247,247" />
    <vehicle id="2_115" type="CarA" route="r1" depart="0.114000" departLane="2" departSpeed="25" arrivalLane="2" color="247,247,247" />
    <vehicle id="2_116" type="CarA" route="r1" depart="0.115000" departLane="2" departSpeed="25" arrivalLane="2" color="247,247,247" />
    <vehicle id="2_117" type="CarA" route="r1" depart="0.116000" departLane="2" departSpeed="25" arrivalLane="2" color="247,247,247" />
    <vehicle id="2_118" type="CarA" route="r1" depart="0.117000" departLane="2" departSpeed="25" arrivalLane="2" color="247,247,247" />
    <vehicle id="2_119" type="CarA" route="r1" depart="0.118000" departLane="2" departSpeed="25" arrivalLane="2" color="247,247,247" />
    <vehicle id="2_120" type="CarA" route="r1" depart="0.119000" departLane="2" departSpeed="25" arrivalLane="2" color="247,247,247" />
    <vehicle id="2_121" type="CarA" route="r1" depart="0.120000" departLane="2" departSpeed="25" arrivalLane="2" color="247,247,247" />
    <vehicle id="2_122" type="CarA" route="r1" depart="0.121000" departLane="2" departSpeed="25" arrivalLane="2" color="247,247,247" />
    <vehicle id="2_123" type="CarA" route="r1" depart="0.122000" departLane="2" departSpeed="25" arrivalLane="2" color="247,247,247" />
    <vehicle id="2_124" type="CarA" route="r1" depart="0.123000" departLane="2" departSpeed="25" arrivalLane="2" color="247,247,247" />
    <vehicle id="2_125" type="CarA" route="r1" depart="0.124000" departLane="2" departSpeed="25" arrivalLane="2" color="247,247,247" />
    <vehicle id="2_126" type="CarA" route="r1" depart="0.125000" departLane="2" departSpeed="25" arrivalLane="2" color="247,247,247" />
    <vehicle id="2_127" type="CarA" route="r1" depart="0.126000" departLane="2" departSpeed="25" arrivalLane="2" color="247,247,247" />
    <vehicle id="2_128" type="CarA" route="r1" depart="0.127000" departLane="2" departSpeed="25" arrivalLane="2" color="247,247,247" />
    <vehicle id="2_129" type="CarA" route="r1" depart="0.128000" departLane="2" departSpeed="25" arrivalLane="2" color="247,247,247" />
    <vehicle id="2_130" type="CarA" route="r1" depart="0.129000" departLane="2" departSpeed="25" arrivalLane="2" color="247,247,247" />
    <vehicle id="2_131" type="CarA" route="r1" depart="0.130000" departLane="2" departSpeed="25" arrivalLane="2" color="247,247,247" />
    <vehicle id="2_132" type="CarA" route="r1" depart="0.131000" departLane="2" departSpeed="25" arrivalLane="2" color="247,247,247" />
    <vehicle id="2_133" type="CarA" route="r1" depart="0.132000" departLane="2" departSpeed="25" arrivalLane="2" color="247,247,247" />
    <vehicle id="2_134" type="CarA" route="r1" depart="0.133000" departLane="2" departSpeed="25" arrivalLane="2" color="247,247,247" />
    <vehicle id="2_135" type="CarA" route="r1" depart="0.134000" departLane="2" departSpeed="25" arrivalLane="2" color="247,247,247" />
    <vehicle id="2_136" type="CarA" route="r1" depart="0.135000" departLane="2" departSpeed="25" arrivalLane="2" color="247,247,247" />
    <vehicle id="2_137" type="CarA" route="r1" depart="0.136000" departLane="2" departSpeed="25" arrivalLane="2" color="247,247,247" />
    <vehicle id="2_138" type="CarA" route="r1" depart="0.137000" departLane="2" departSpeed="25" arrivalLane="2" color="247,247,247" />
    <vehicle id="2_139" type="CarA" route="r1" depart="0.138000" departLane="2" departSpeed="25" arrivalLane="2" color="247,247,247" />
    <vehicle id="2_140" type="CarA" route="r1" depart="0.139000" departLane="2" departSpeed="25" arrivalLane="2" color="247,247,247" />
    <vehicle id="2_141" type="CarA" route="r1" depart="0.140000" departLane="2" departSpeed="25" arrivalLane="2" color="247,247,247" />
    <vehicle id="2_142" type="CarA" route="r1" depart="0.141000" departLane="2" departSpeed="25" arrivalLane="2" color="247,247,247" />
    <vehicle id="2_143" type="CarA" route="r1" depart="0.142000" departLane="2" departSpeed="25" arrivalLane="2" color="247,247,247" />
    <vehicle id="2_144" type="CarA" route="r1" depart="0.143000" departLane="2" departSpeed="25" arrivalLane="2" color="247,247,247" />
    <vehicle id="2_145" type="CarA" route="r1" depart="0.144000" departLane="2" departSpeed="25" arrivalLane="2" color="247,247,247" />
    <vehicle id="2_146" type="CarA" route="r1" depart="0.145000" departLane="2" departSpeed="25" arrivalLane="2" color="247,247,247" />
    <vehicle id="2_147" type="CarA" route="r1" depart="0.146000" departLane="2" departSpeed="25" arrivalLane="2" color="247,247,247" />
    <vehicle id="2_148" type="CarA" route="r1" depart="0.147000" departLane="2" departSpeed="25" arrivalLane="2" color="247,247,247" />
    <vehicle id="2_149" type="CarA" route="r1" depart="0.148000" departLane="2" departSpeed="25" arrivalLane="2" color="247,247,247" />
    <vehicle id="2_150" type="CarA" route="r1" depart="0.149000" departLane="2" departSpeed="25" arrivalLane="2" color="247,247,247" />
    <vehicle id="2_151" type="CarA" route="r1" depart="0.150000" departLane="2" departSpeed="25" arrivalLane="2" color="247,247,247" />
    <vehicle id="2_152" type="CarA" route="r1" depart="0.151000" departLane="2" departSpeed="25" arrivalLane="2" color="247,247,247" />
    <vehicle id="2_153" type="CarA" route="r1" depart="0.152000" departLane="2" departSpeed="25" arrivalLane="2" color="247,247,247" />
    <vehicle id="2_154" type="CarA" route="r1" depart="0.153000" departLane="2" departSpeed="25" arrivalLane="2" color="247,247,247" />
    <vehicle id="2_155" type="CarA" route="r1" depart="0.154000" departLane="2" departSpeed="25" arrivalLane="2" color="247,247,247" />
    <vehicle id="2_156" type="CarA" route="r1" depart="0.155000" departLane="2" departSpeed="25" arrivalLane="2" color="247,247,247" />
    <vehicle id="2_157" type="CarA" route="r1" depart="0.156000" departLane="2" departSpeed="25" arrivalLane="2" color="247,247,247" />
    <vehicle id="2_158" type="CarA" route="r1" depart="0.157000" departLane="2" departSpeed="25" arrivalLane="2" color="247,247,247" />
    <vehicle id="2_159" type="CarA" route="r1" depart="0.158000" departLane="2" departSpeed="25" arrivalLane="2" color="247,247,247" />
    <vehicle id="2_160" type="CarA" route="r1" depart="0.159000" departLane="2" departSpeed="25" arrivalLane="2" color="247,247,247" />
    <vehicle id="2_161" type="CarA" route="r1" depart="0.160000" departLane="2" departSpeed="25" arrivalLane="2" color="247,247,247" />
    <vehicle id="2_162" type="CarA" route="r1" depart="0.161000" departLane="2" departSpeed="25" arrivalLane="2" color="247,247,247" />
    <vehicle id="2_163" type="CarA" route="r1" depart="0.162000" departLane="2" departSpeed="25" arrivalLane="2" color="247,247,247" />
    <vehicle id="2_164" type="CarA" route="r1" depart="0.163000" departLane="2" departSpeed="25" arrivalLane="2" color="247,247,247" />
    <vehicle id="2_165" type="CarA" route="r1" depart="0.164000" departLane="2" departSpeed="25" arrivalLane="2" color="247,247,247" />
    <vehicle id="2_166" type="CarA" route="r1" depart="0.165000" departLane="2" departSpeed="25" arrivalLane="2" color="247,247,247" />
    <vehicle id="2_167" type="CarA" route="r1" depart="0.166000" departLane="2" departSpeed="25" arrivalLane="2" color="247,247,247" />
    <vehicle id="2_168" type="CarA" route="r1" depart="0.167000" departLane="2" departSpeed="25" arrivalLane="2" color="247,247,247" />
    <vehicle id="2_169" type="CarA" route="r1" depart="0.168000" departLane="2" departSpeed="25" arrivalLane="2" color="247,247,247" />
    <vehicle id="2_170" type="CarA" route="r1" depart="0.169000" departLane="2" departSpeed="25" arrivalLane="2" color="247,247,247" />
    <vehicle id="2_171" type="CarA" route="r1" depart="0.170000" departLane="2" departSpeed="25" arrivalLane="2" color="247,247,247" />
    <vehicle id="2_172" type="CarA" route="r1" depart="0.171000" departLane="2" departSpeed="25" arrivalLane="2" color="247,247,247" />
    <vehicle id="2_173" type="CarA" route="r1" depart="0.172000" departLane="2" departSpeed="25" arrivalLane="2" color="247,247,247" />
    <vehicle id="2_174" type="CarA" route="r1" depart="0.173000" departLane="2" departSpeed="25" arrivalLane="2" color="247,247,247" />
    <vehicle id="2_175" type="CarA" route="r1" depart="0.174000" departLane="2" departSpeed="25" arrivalLane="2" color="247,247,247" />
    <vehicle id="2_176" type="CarA" route="r1" depart="0.175000" departLane="2" departSpeed="25" arrivalLane="2" color="247,247,247" />
    <vehicle id="2_177" type="CarA" route="r1" depart="0.176000" departLane="2" departSpeed="25" arrivalLane="2" color="247,247,247" />
    <vehicle id="2_178" type="CarA" route="r1" depart="0.177000" departLane="2" departSpeed="25" arrivalLane="2" color="247,247,247" />
    <vehicle id="2_179" type="CarA" route="r1" depart="0.178000" departLane="2" departSpeed="25" arrivalLane="2" color="247,247,247" />
    <vehicle id="2_180" type="CarA" route="r1" depart="0.179000" departLane="2" departSpeed="25" arrivalLane="2" color="247,247,247" />
    <vehicle id="2_181" type="CarA" route="r1" depart="0.180000" departLane="2" departSpeed="25" arrivalLane="2" color="247,247,247" />
    <vehicle id="2_182" type="CarA" route="r1" depart="0.181000" departLane="2" departSpeed="25" arrivalLane="2" color="247,247,247" />
    <vehicle id="2_183" type="CarA" route="r1" depart="0.182000" departLane="2" departSpeed="25" arrivalLane="2" color="247,247,247" />
    <vehicle id="2_184" type="CarA" route="r1" depart="0.183000" departLane="2" departSpeed="25" arrivalLane="2" color="247,247,247" />
    <vehicle id="2_185" type="CarA" route="r1" depart="0.184000" departLane="2" departSpeed="25" arrivalLane="2" color="247,247,247" />
    <vehicle id="2_186" type="CarA" route="r1" depart="0.185000" departLane="2" departSpeed="25" arrivalLane="2" color="247,247,247" />
    <vehicle id="2_187" type="CarA" route="r1" depart="0.186000" departLane="2" departSpeed="25" arrivalLane="2" color="247,247,247" />
    <vehicle id="2_188" type="CarA" route="r1" depart="0.187000" departLane="2" departSpeed="25" arrivalLane="2" color="247,247,247" />
    <vehicle id="2_189" type="CarA" route="r1" depart="0.188000" departLane="2" departSpeed="25" arrivalLane="2" color="247,247,247" />
    <vehicle id="2_190" type="CarA" route="r1" depart="0.189000" departLane="2" departSpeed="25" arrivalLane="2" color="247,247,247" />
    <vehicle id="2_191" type="CarA" route="r1" depart="0.190000" departLane="2" departSpeed="25" arrivalLane="2" color="247,247,247" />
    <vehicle id="2_192" type="CarA" route="r1" depart="0.191000" departLane="2" departSpeed="25" arrivalLane="2" color="247,247,247" />
    <vehicle id="2_193" type="CarA" route="r1" depart="0.192000" departLane="2" departSpeed="25" arrivalLane="2" color="247,247,247" />
    <vehicle id="2_194" type="CarA" route="r1" depart="0.193000" departLane="2" departSpeed="25" arrivalLane="2" color="247,247,247" />
    <vehicle id="2_195" type="CarA" route="r1" depart="0.194000" departLane="2" departSpeed="25" arrivalLane="2" color="247,247,247" />
    <vehicle id="2_196" type="CarA" route="r1" depart="0.195000" departLane="2" departSpeed="25" arrivalLane="2" color="247,247,247" />
    <vehicle id="2_197" type="CarA" route="r1" depart="0.196000" departLane="2" departSpeed="25" arrivalLane="2" color="247,247,247" />
    <vehicle id="2_198" type="CarA" route="r1" depart="0.197000" departLane="2" departSpeed="25" arrivalLane="2" color="247,247,247" />
    <vehicle id="2_199" type="CarA" route="r1" depart="0.198000" departLane="2" departSpeed="25" arrivalLane="2" color="247,247,247" />
    <vehicle id="2_200" type="CarA" route="r1" depart="0.199000" departLane="2" departSpeed="25" arrivalLane="2" color="247,247,247" />
    <vehicle id="2_201" type="CarA" route="r1" depart="0.200000" departLane="2" departSpeed="25" arrivalLane="2" color="247,247,247" />
    <vehicle id="2_202" type="CarA" route="r1" depart="0.201000" departLane="2" departSpeed="25" arrivalLane="2" color="247,247,247" />
    <vehicle id="2_203" type="CarA" route="r1" depart="0.202000" departLane="2" departSpeed="25" arrivalLane="2" color="247,247,247" />
    <vehicle id="2_204" type="CarA" route="r1" depart="0.203000" departLane="2" departSpeed="25" arrivalLane="2" color="247,247,247" />
    <vehicle id="2_205" type="CarA" route="r1" depart="0.204000" departLane="2" departSpeed="25" arrivalLane="2" color="247,247,247" />
    <vehicle id="2_206" type="CarA" route="r1" depart="0.205000" departLane="2" departSpeed="25" arrivalLane="2" color="247,247,247" />
    <vehicle id="2_207" type="CarA" route="r1" depart="0.206000" departLane="2" departSpeed="25" arrivalLane="2" color="247,247,247" />
    <vehicle id="2_208" type="CarA" route="r1" depart="0.207000" departLane="2" departSpeed="25" arrivalLane="2" color="247,247,247" />
    <vehicle id="2_209" type="CarA" route="r1" depart="0.208000" departLane="2" departSpeed="25" arrivalLane="2" color="247,247,247" />
    <vehicle id="2_210" type="CarA" route="r1" depart="0.209000" departLane="2" departSpeed="25" arrivalLane="2" color="247,247,247" />
    <vehicle id="2_211" type="CarA" route="r1" depart="0.210000" departLane="2" departSpeed="25" arrivalLane="2" color="247,247,247" />
    <vehicle id="2_212" type="CarA" route="r1" depart="0.211000" departLane="2" departSpeed="25" arrivalLane="2" color="247,247,247" />
    <vehicle id="2_213" type="CarA" route="r1" depart="0.212000" departLane="2" departSpeed="25" arrivalLane="2" color="247,247,247" />
    <vehicle id="2_214" type="CarA" route="r1" depart="0.213000" departLane="2" departSpeed="25" arrivalLane="2" color="247,247,247" />
    <vehicle id="2_215" type="CarA" route="r1" depart="0.214000" departLane="2" departSpeed="25" arrivalLane="2" color="247,247,247" />
    <vehicle id="2_216" type="CarA" route="r1" depart="0.215000" departLane="2" departSpeed="25" arrivalLane="2" color="247,247,247" />
    <vehicle id="2_217" type="CarA" route="r1" depart="0.216000" departLane="2" departSpeed="25" arrivalLane="2" color="247,247,247" />
    <vehicle id="2_218" type="CarA" route="r1" depart="0.217000" departLane="2" departSpeed="25" arrivalLane="2" color="247,247,247" />
    <vehicle id="2_219" type="CarA" route="r1" depart="0.218000" departLane="2" departSpeed="25" arrivalLane="2" color="247,247,247" />