<?xml version="1.0" encoding="UTF-8"?>

<!-- generated on 2022-07-22 12:35:08 by Eclipse SUMO netedit Version 1.13.0
-->

<routes xmlns:xsi="http://www.w3.org/2001/XMLSchema-instance" xsi:noNamespaceSchemaLocation="http://sumo.dlr.de/xsd/routes_file.xsd">
    <!-- Routes -->
    <route id="r_1" edges="E0 E1"/>
    <route id="r_2" edges="E0 E1"/>
    <route id="r_3" edges="E0 E1"/>
</routes>
