<routes>
    <vType id="CarA" length="5" maxSpeed="25" carFollowModel="Krauss" width='1.6' tau="3" minGap="5" accel="3"  decel="3" />
    <route id="r1" edges="E0 E1" />
    <vehicle id="0_1" type="CarA" route="r1" depart="0.000000" departLane="0" departSpeed="20" color="248,248,255"/>
    <vehicle id="1_1" type="CarA" route="r1" depart="1.000000" departLane="1" departSpeed="20" color="0,0,255" />
    <vehicle id="2_1" type="CarA" route="r1" depart="2.000000" departLane="2" departSpeed="20" color="248,248,255" />
    <vehicle id="0_2" type="CarA" route="r1" depart="3.000000" departLane="0" departSpeed="20" color="248,248,255"/>
    <vehicle id="1_2" type="CarA" route="r1" depart="4.000000" departLane="1" departSpeed="20" color="0,0,255" />
    <vehicle id="2_2" type="CarA" route="r1" depart="5.000000" departLane="2" departSpeed="20" color="248,248,255" />
    <vehicle id="0_3" type="CarA" route="r1" depart="6.000000" departLane="0" departSpeed="20" color="248,248,255"/>
    <vehicle id="1_3" type="CarA" route="r1" depart="7.000000" departLane="1" departSpeed="20" color="0,0,255" />
    <vehicle id="2_3" type="CarA" route="r1" depart="8.000000" departLane="2" departSpeed="20" color="248,248,255" />
    <vehicle id="0_4" type="CarA" route="r1" depart="9.000000" departLane="0" departSpeed="20" color="248,248,255"/>
    <vehicle id="1_4" type="CarA" route="r1" depart="10.000000" departLane="1" departSpeed="20" color="0,0,255" />
    <vehicle id="2_4" type="CarA" route="r1" depart="11.000000" departLane="2" departSpeed="20" color="248,248,255" />
    <vehicle id="0_5" type="CarA" route="r1" depart="12.000000" departLane="0" departSpeed="20" color="248,248,255"/>
    <vehicle id="1_5" type="CarA" route="r1" depart="13.000000" departLane="1" departSpeed="20" color="0,0,255" />
    <vehicle id="2_5" type="CarA" route="r1" depart="14.000000" departLane="2" departSpeed="20" color="248,248,255" />
    <vehicle id="0_6" type="CarA" route="r1" depart="15.000000" departLane="0" departSpeed="20" color="248,248,255"/>
    <vehicle id="1_6" type="CarA" route="r1" depart="16.000000" departLane="1" departSpeed="20" color="0,0,255" />
    <vehicle id="2_6" type="CarA" route="r1" depart="17.000000" departLane="2" departSpeed="20" color="248,248,255" />
    <vehicle id="0_7" type="CarA" route="r1" depart="18.000000" departLane="0" departSpeed="20" color="248,248,255"/>
    <vehicle id="1_7" type="CarA" route="r1" depart="19.000000" departLane="1" departSpeed="20" color="0,0,255" />
    <vehicle id="2_7" type="CarA" route="r1" depart="20.000000" departLane="2" departSpeed="20" color="248,248,255" />
    <vehicle id="0_8" type="CarA" route="r1" depart="21.000000" departLane="0" departSpeed="20" color="248,248,255"/>
    <vehicle id="1_8" type="CarA" route="r1" depart="22.000000" departLane="1" departSpeed="20" color="0,0,255" />
    <vehicle id="2_8" type="CarA" route="r1" depart="23.000000" departLane="2" departSpeed="20" color="248,248,255" />
    <vehicle id="0_9" type="CarA" route="r1" depart="24.000000" departLane="0" departSpeed="20" color="248,248,255"/>
    <vehicle id="1_9" type="CarA" route="r1" depart="25.000000" departLane="1" departSpeed="20" color="0,0,255" />
    <vehicle id="2_9" type="CarA" route="r1" depart="26.000000" departLane="2" departSpeed="20" color="248,248,255" />
    <vehicle id="0_10" type="CarA" route="r1" depart="27.000000" departLane="0" departSpeed="20" color="248,248,255"/>
    <vehicle id="1_10" type="CarA" route="r1" depart="28.000000" departLane="1" departSpeed="20" color="0,0,255" />
    <vehicle id="2_10" type="CarA" route="r1" depart="29.000000" departLane="2" departSpeed="20" color="248,248,255" />
    <vehicle id="0_11" type="CarA" route="r1" depart="30.000000" departLane="0" departSpeed="20" color="248,248,255"/>
    <vehicle id="1_11" type="CarA" route="r1" depart="31.000000" departLane="1" departSpeed="20" color="0,0,255" />
    <vehicle id="2_11" type="CarA" route="r1" depart="32.000000" departLane="2" departSpeed="20" color="248,248,255" />
    <vehicle id="0_12" type="CarA" route="r1" depart="33.000000" departLane="0" departSpeed="20" color="248,248,255"/>
    <vehicle id="1_12" type="CarA" route="r1" depart="34.000000" departLane="1" departSpeed="20" color="0,0,255" />
    <vehicle id="2_12" type="CarA" route="r1" depart="35.000000" departLane="2" departSpeed="20" color="248,248,255" />
    <vehicle id="0_13" type="CarA" route="r1" depart="36.000000" departLane="0" departSpeed="20" color="248,248,255"/>
    <vehicle id="1_13" type="CarA" route="r1" depart="37.000000" departLane="1" departSpeed="20" color="0,0,255" />
    <vehicle id="2_13" type="CarA" route="r1" depart="38.000000" departLane="2" departSpeed="20" color="248,248,255" />
    <vehicle id="0_14" type="CarA" route="r1" depart="39.000000" departLane="0" departSpeed="20" color="248,248,255"/>
    <vehicle id="1_14" type="CarA" route="r1" depart="40.000000" departLane="1" departSpeed="20" color="0,0,255" />
    <vehicle id="2_14" type="CarA" route="r1" depart="41.000000" departLane="2" departSpeed="20" color="248,248,255" />
    <vehicle id="0_15" type="CarA" route="r1" depart="42.000000" departLane="0" departSpeed="20" color="248,248,255"/>
    <vehicle id="1_15" type="CarA" route="r1" depart="43.000000" departLane="1" departSpeed="20" color="0,0,255" />
    <vehicle id="2_15" type="CarA" route="r1" depart="44.000000" departLane="2" departSpeed="20" color="248,248,255" />
    <vehicle id="0_16" type="CarA" route="r1" depart="45.000000" departLane="0" departSpeed="20" color="248,248,255"/>
    <vehicle id="1_16" type="CarA" route="r1" depart="46.000000" departLane="1" departSpeed="20" color="0,0,255" />
    <vehicle id="2_16" type="CarA" route="r1" depart="47.000000" departLane="2" departSpeed="20" color="248,248,255" />
    <vehicle id="0_17" type="CarA" route="r1" depart="48.000000" departLane="0" departSpeed="20" color="248,248,255"/>
    <vehicle id="1_17" type="CarA" route="r1" depart="49.000000" departLane="1" departSpeed="20" color="0,0,255" />
    <vehicle id="2_17" type="CarA" route="r1" depart="50.000000" departLane="2" departSpeed="20" color="248,248,255" />
    <vehicle id="0_18" type="CarA" route="r1" depart="51.000000" departLane="0" departSpeed="20" color="248,248,255"/>
    <vehicle id="1_18" type="CarA" route="r1" depart="52.000000" departLane="1" departSpeed="20" color="0,0,255" />
    <vehicle id="2_18" type="CarA" route="r1" depart="53.000000" departLane="2" departSpeed="20" color="248,248,255" />
    <vehicle id="0_19" type="CarA" route="r1" depart="54.000000" departLane="0" departSpeed="20" color="248,248,255"/>
    <vehicle id="1_19" type="CarA" route="r1" depart="55.000000" departLane="1" departSpeed="20" color="0,0,255" />
    <vehicle id="2_19" type="CarA" route="r1" depart="56.000000" departLane="2" departSpeed="20" color="248,248,255" />
    <vehicle id="0_20" type="CarA" route="r1" depart="57.000000" departLane="0" departSpeed="20" color="248,248,255"/>
    <vehicle id="1_20" type="CarA" route="r1" depart="58.000000" departLane="1" departSpeed="20" color="0,0,255" />
    <vehicle id="2_20" type="CarA" route="r1" depart="59.000000" departLane="2" departSpeed="20" color="248,248,255" />
    <vehicle id="0_21" type="CarA" route="r1" depart="60.000000" departLane="0" departSpeed="20" color="248,248,255"/>
    <vehicle id="1_21" type="CarA" route="r1" depart="61.000000" departLane="1" departSpeed="20" color="0,0,255" />
    <vehicle id="2_21" type="CarA" route="r1" depart="62.000000" departLane="2" departSpeed="20" color="248,248,255" />
    <vehicle id="0_22" type="CarA" route="r1" depart="63.000000" departLane="0" departSpeed="20" color="248,248,255"/>
    <vehicle id="1_22" type="CarA" route="r1" depart="64.000000" departLane="1" departSpeed="20" color="0,0,255" />
    <vehicle id="2_22" type="CarA" route="r1" depart="65.000000" departLane="2" departSpeed="20" color="248,248,255" />
    <vehicle id="0_23" type="CarA" route="r1" depart="66.000000" departLane="0" departSpeed="20" color="248,248,255"/>
    <vehicle id="1_23" type="CarA" route="r1" depart="67.000000" departLane="1" departSpeed="20" color="0,0,255" />
    <vehicle id="2_23" type="CarA" route="r1" depart="68.000000" departLane="2" departSpeed="20" color="248,248,255" />
    <vehicle id="0_24" type="CarA" route="r1" depart="69.000000" departLane="0" departSpeed="20" color="248,248,255"/>
    <vehicle id="1_24" type="CarA" route="r1" depart="70.000000" departLane="1" departSpeed="20" color="0,0,255" />
    <vehicle id="2_24" type="CarA" route="r1" depart="71.000000" departLane="2" departSpeed="20" color="248,248,255" />
    <vehicle id="0_25" type="CarA" route="r1" depart="72.000000" departLane="0" departSpeed="20" color="248,248,255"/>
    <vehicle id="1_25" type="CarA" route="r1" depart="73.000000" departLane="1" departSpeed="20" color="0,0,255" />
    <vehicle id="2_25" type="CarA" route="r1" depart="74.000000" departLane="2" departSpeed="20" color="248,248,255" />
    <vehicle id="0_26" type="CarA" route="r1" depart="75.000000" departLane="0" departSpeed="20" color="248,248,255"/>
    <vehicle id="1_26" type="CarA" route="r1" depart="76.000000" departLane="1" departSpeed="20" color="0,0,255" />
    <vehicle id="2_26" type="CarA" route="r1" depart="77.000000" departLane="2" departSpeed="20" color="248,248,255" />
    <vehicle id="0_27" type="CarA" route="r1" depart="78.000000" departLane="0" departSpeed="20" color="248,248,255"/>
    <vehicle id="1_27" type="CarA" route="r1" depart="79.000000" departLane="1" departSpeed="20" color="0,0,255" />
    <vehicle id="2_27" type="CarA" route="r1" depart="80.000000" departLane="2" departSpeed="20" color="248,248,255" />
    <vehicle id="0_28" type="CarA" route="r1" depart="81.000000" departLane="0" departSpeed="20" color="248,248,255"/>
    <vehicle id="1_28" type="CarA" route="r1" depart="82.000000" departLane="1" departSpeed="20" color="0,0,255" />
    <vehicle id="2_28" type="CarA" route="r1" depart="83.000000" departLane="2" departSpeed="20" color="248,248,255" />
    <vehicle id="0_29" type="CarA" route="r1" depart="84.000000" departLane="0" departSpeed="20" color="248,248,255"/>
    <vehicle id="1_29" type="CarA" route="r1" depart="85.000000" departLane="1" departSpeed="20" color="0,0,255" />
    <vehicle id="2_29" type="CarA" route="r1" depart="86.000000" departLane="2" departSpeed="20" color="248,248,255" />
    <vehicle id="0_30" type="CarA" route="r1" depart="87.000000" departLane="0" departSpeed="20" color="248,248,255"/>
    <vehicle id="1_30" type="CarA" route="r1" depart="88.000000" departLane="1" departSpeed="20" color="0,0,255" />
    <vehicle id="2_30" type="CarA" route="r1" depart="89.000000" departLane="2" departSpeed="20" color="248,248,255" />
    <vehicle id="0_31" type="CarA" route="r1" depart="90.000000" departLane="0" departSpeed="20" color="248,248,255"/>
    <vehicle id="1_31" type="CarA" route="r1" depart="91.000000" departLane="1" departSpeed="20" color="0,0,255" />
    <vehicle id="2_31" type="CarA" route="r1" depart="92.000000" departLane="2" departSpeed="20" color="248,248,255" />
    <vehicle id="0_32" type="CarA" route="r1" depart="93.000000" departLane="0" departSpeed="20" color="248,248,255"/>
    <vehicle id="1_32" type="CarA" route="r1" depart="94.000000" departLane="1" departSpeed="20" color="0,0,255" />
    <vehicle id="2_32" type="CarA" route="r1" depart="95.000000" departLane="2" departSpeed="20" color="248,248,255" />
    <vehicle id="0_33" type="CarA" route="r1" depart="96.000000" departLane="0" departSpeed="20" color="248,248,255"/>
    <vehicle id="1_33" type="CarA" route="r1" depart="97.000000" departLane="1" departSpeed="20" color="0,0,255" />
    <vehicle id="2_33" type="CarA" route="r1" depart="98.000000" departLane="2" departSpeed="20" color="248,248,255" />
    <vehicle id="0_34" type="CarA" route="r1" depart="99.000000" departLane="0" departSpeed="20" color="248,248,255"/>
</routes>
