<routes>
    <vType id="CarA" length="5" maxSpeed="25" carFollowModel="Krauss" width='1.6' tau="1" minGap="0" accel="3"  decel="3" />
    <route id="r1" edges="EA EB" />
</routes>
