<routes>
    <vType id="CarA" length="5" maxSpeed="25" carFollowModel="Krauss" width='1.6' tau="0.0001" minGap="0" accel="0.0001"  decel="0.004"/>
    <vType id="CarB" length="5" maxSpeed="25" carFollowModel="Krauss" width='1.6' tau="1" minGap="0" accel="3"  decel="3"/>
    <route id="r1" edges="EA EB" />
    <vehicle id="0_1" type="CarB" route="r1" depart="0.000000" departLane="0" departSpeed="20" color="248,248,255"/>
    <vehicle id="4_1" type="CarB" route="r1" depart="0.000000" departLane="4" departSpeed="20" color="248,248,255"/>
    <vehicle id="1_1" type="CarB" route="r1" depart="0.500000" departLane="1" departSpeed="20" color="248,248,255"/>
    <vehicle id="2_1" type="CarB" route="r1" depart="1.000000" departLane="2" departSpeed="20" color="248,248,255"/>
    <vehicle id="3_1" type="CarB" route="r1" depart="1.500000" departLane="3" departSpeed="20" color="248,248,255"/>
    <vehicle id="0_2" type="CarB" route="r1" depart="2.000000" departLane="0" departSpeed="20" color="248,248,255"/>
    <vehicle id="4_2" type="CarB" route="r1" depart="2.000000" departLane="4" departSpeed="20" color="248,248,255"/>
    <vehicle id="1_2" type="CarB" route="r1" depart="2.500000" departLane="1" departSpeed="20" color="248,248,255"/>
    <vehicle id="2_2" type="CarB" route="r1" depart="3.000000" departLane="2" departSpeed="20" color="248,248,255"/>
    <vehicle id="3_2" type="CarB" route="r1" depart="3.500000" departLane="3" departSpeed="20" color="248,248,255"/>
    <vehicle id="0_3" type="CarB" route="r1" depart="4.000000" departLane="0" departSpeed="20" color="248,248,255"/>
    <vehicle id="4_3" type="CarB" route="r1" depart="4.000000" departLane="4" departSpeed="20" color="248,248,255"/>
    <vehicle id="1_3" type="CarB" route="r1" depart="4.500000" departLane="1" departSpeed="20" color="248,248,255"/>
    <vehicle id="2_3" type="CarB" route="r1" depart="5.000000" departLane="2" departSpeed="20" color="248,248,255"/>
    <vehicle id="3_3" type="CarB" route="r1" depart="5.500000" departLane="3" departSpeed="20" color="248,248,255"/>
    <vehicle id="0_4" type="CarB" route="r1" depart="6.000000" departLane="0" departSpeed="20" color="248,248,255"/>
    <vehicle id="4_4" type="CarB" route="r1" depart="6.000000" departLane="4" departSpeed="20" color="248,248,255"/>
    <vehicle id="1_4" type="CarB" route="r1" depart="6.500000" departLane="1" departSpeed="20" color="248,248,255"/>
    <vehicle id="2_4" type="CarB" route="r1" depart="7.000000" departLane="2" departSpeed="20" color="248,248,255"/>
    <vehicle id="3_4" type="CarB" route="r1" depart="7.500000" departLane="3" departSpeed="20" color="248,248,255"/>
    <vehicle id="0_5" type="CarB" route="r1" depart="8.000000" departLane="0" departSpeed="20" color="248,248,255"/>
    <vehicle id="4_5" type="CarB" route="r1" depart="8.000000" departLane="4" departSpeed="20" color="248,248,255"/>
    <vehicle id="1_5" type="CarB" route="r1" depart="8.500000" departLane="1" departSpeed="20" color="248,248,255"/>
    <vehicle id="2_5" type="CarB" route="r1" depart="9.000000" departLane="2" departSpeed="20" color="248,248,255"/>
    <vehicle id="3_5" type="CarB" route="r1" depart="9.500000" departLane="3" departSpeed="20" color="248,248,255"/>
    <vehicle id="0_6" type="CarB" route="r1" depart="10.000000" departLane="0" departSpeed="20" color="248,248,255"/>
    <vehicle id="4_6" type="CarB" route="r1" depart="10.000000" departLane="4" departSpeed="20" color="248,248,255"/>
    <vehicle id="1_6" type="CarB" route="r1" depart="10.500000" departLane="1" departSpeed="20" color="248,248,255"/>
    <vehicle id="2_6" type="CarB" route="r1" depart="11.000000" departLane="2" departSpeed="20" color="248,248,255"/>
    <vehicle id="3_6" type="CarB" route="r1" depart="11.500000" departLane="3" departSpeed="20" color="248,248,255"/>
    <vehicle id="0_7" type="CarB" route="r1" depart="12.000000" departLane="0" departSpeed="20" color="248,248,255"/>
    <vehicle id="4_7" type="CarB" route="r1" depart="12.000000" departLane="4" departSpeed="20" color="248,248,255"/>
    <vehicle id="1_7" type="CarB" route="r1" depart="12.500000" departLane="1" departSpeed="20" color="248,248,255"/>
    <vehicle id="2_7" type="CarB" route="r1" depart="13.000000" departLane="2" departSpeed="20" color="248,248,255"/>
    <vehicle id="3_7" type="CarB" route="r1" depart="13.500000" departLane="3" departSpeed="20" color="248,248,255"/>
    <vehicle id="0_8" type="CarB" route="r1" depart="14.000000" departLane="0" departSpeed="20" color="248,248,255"/>
    <vehicle id="4_8" type="CarB" route="r1" depart="14.000000" departLane="4" departSpeed="20" color="248,248,255"/>
    <vehicle id="1_8" type="CarB" route="r1" depart="14.500000" departLane="1" departSpeed="20" color="248,248,255"/>
    <vehicle id="2_8" type="CarB" route="r1" depart="15.000000" departLane="2" departSpeed="20" color="248,248,255"/>
    <vehicle id="3_8" type="CarB" route="r1" depart="15.500000" departLane="3" departSpeed="20" color="248,248,255"/>
    <vehicle id="0_9" type="CarB" route="r1" depart="16.000000" departLane="0" departSpeed="20" color="248,248,255"/>
    <vehicle id="4_9" type="CarB" route="r1" depart="16.000000" departLane="4" departSpeed="20" color="248,248,255"/>
    <vehicle id="1_9" type="CarB" route="r1" depart="16.500000" departLane="1" departSpeed="20" color="248,248,255"/>
    <vehicle id="2_9" type="CarB" route="r1" depart="17.000000" departLane="2" departSpeed="20" color="248,248,255"/>
    <vehicle id="3_9" type="CarB" route="r1" depart="17.500000" departLane="3" departSpeed="20" color="248,248,255"/>
    <vehicle id="0_10" type="CarB" route="r1" depart="18.000000" departLane="0" departSpeed="20" color="248,248,255"/>
    <vehicle id="4_10" type="CarB" route="r1" depart="18.000000" departLane="4" departSpeed="20" color="248,248,255"/>
    <vehicle id="1_10" type="CarB" route="r1" depart="18.500000" departLane="1" departSpeed="20" color="248,248,255"/>
    <vehicle id="2_10" type="CarB" route="r1" depart="19.000000" departLane="2" departSpeed="20" color="248,248,255"/>
    <vehicle id="3_10" type="CarB" route="r1" depart="19.500000" departLane="3" departSpeed="20" color="248,248,255"/>
    <vehicle id="0_11" type="CarB" route="r1" depart="20.000000" departLane="0" departSpeed="20" color="248,248,255"/>
    <vehicle id="4_11" type="CarB" route="r1" depart="20.000000" departLane="4" departSpeed="20" color="248,248,255"/>
    <vehicle id="1_11" type="CarB" route="r1" depart="20.500000" departLane="1" departSpeed="20" color="248,248,255"/>
    <vehicle id="2_11" type="CarB" route="r1" depart="21.000000" departLane="2" departSpeed="20" color="248,248,255"/>
    <vehicle id="3_11" type="CarB" route="r1" depart="21.500000" departLane="3" departSpeed="20" color="248,248,255"/>
    <vehicle id="0_12" type="CarB" route="r1" depart="22.000000" departLane="0" departSpeed="20" color="248,248,255"/>
    <vehicle id="4_12" type="CarB" route="r1" depart="22.000000" departLane="4" departSpeed="20" color="248,248,255"/>
    <vehicle id="1_12" type="CarB" route="r1" depart="22.500000" departLane="1" departSpeed="20" color="248,248,255"/>
    <vehicle id="2_12" type="CarB" route="r1" depart="23.000000" departLane="2" departSpeed="20" color="248,248,255"/>
    <vehicle id="3_12" type="CarB" route="r1" depart="23.500000" departLane="3" departSpeed="20" color="248,248,255"/>
    <vehicle id="0_13" type="CarB" route="r1" depart="24.000000" departLane="0" departSpeed="20" color="248,248,255"/>
    <vehicle id="4_13" type="CarB" route="r1" depart="24.000000" departLane="4" departSpeed="20" color="248,248,255"/>
    <vehicle id="1_13" type="CarB" route="r1" depart="24.500000" departLane="1" departSpeed="20" color="248,248,255"/>
    <vehicle id="2_13" type="CarB" route="r1" depart="25.000000" departLane="2" departSpeed="20" color="248,248,255"/>
    <vehicle id="3_13" type="CarB" route="r1" depart="25.500000" departLane="3" departSpeed="20" color="248,248,255"/>
    <vehicle id="0_14" type="CarB" route="r1" depart="26.000000" departLane="0" departSpeed="20" color="248,248,255"/>
    <vehicle id="4_14" type="CarB" route="r1" depart="26.000000" departLane="4" departSpeed="20" color="248,248,255"/>
    <vehicle id="1_14" type="CarB" route="r1" depart="26.500000" departLane="1" departSpeed="20" color="248,248,255"/>
    <vehicle id="2_14" type="CarB" route="r1" depart="27.000000" departLane="2" departSpeed="20" color="248,248,255"/>
    <vehicle id="3_14" type="CarB" route="r1" depart="27.500000" departLane="3" departSpeed="20" color="248,248,255"/>
    <vehicle id="0_15" type="CarB" route="r1" depart="28.000000" departLane="0" departSpeed="20" color="248,248,255"/>
    <vehicle id="4_15" type="CarB" route="r1" depart="28.000000" departLane="4" departSpeed="20" color="248,248,255"/>
    <vehicle id="1_15" type="CarB" route="r1" depart="28.500000" departLane="1" departSpeed="20" color="248,248,255"/>
    <vehicle id="2_15" type="CarB" route="r1" depart="29.000000" departLane="2" departSpeed="20" color="248,248,255"/>
    <vehicle id="3_15" type="CarB" route="r1" depart="29.500000" departLane="3" departSpeed="20" color="248,248,255"/>
    <vehicle id="0_16" type="CarB" route="r1" depart="30.000000" departLane="0" departSpeed="20" color="248,248,255"/>
    <vehicle id="4_16" type="CarB" route="r1" depart="30.000000" departLane="4" departSpeed="20" color="248,248,255"/>
    <vehicle id="1_16" type="CarB" route="r1" depart="30.500000" departLane="1" departSpeed="20" color="248,248,255"/>
    <vehicle id="2_16" type="CarB" route="r1" depart="31.000000" departLane="2" departSpeed="20" color="248,248,255"/>
    <vehicle id="3_16" type="CarB" route="r1" depart="31.500000" departLane="3" departSpeed="20" color="248,248,255"/>
    <vehicle id="0_17" type="CarB" route="r1" depart="32.000000" departLane="0" departSpeed="20" color="248,248,255"/>
    <vehicle id="4_17" type="CarB" route="r1" depart="32.000000" departLane="4" departSpeed="20" color="248,248,255"/>
    <vehicle id="1_17" type="CarB" route="r1" depart="32.500000" departLane="1" departSpeed="20" color="248,248,255"/>
    <vehicle id="2_17" type="CarB" route="r1" depart="33.000000" departLane="2" departSpeed="20" color="248,248,255"/>
    <vehicle id="3_17" type="CarB" route="r1" depart="33.500000" departLane="3" departSpeed="20" color="248,248,255"/>
    <vehicle id="0_18" type="CarB" route="r1" depart="34.000000" departLane="0" departSpeed="20" color="248,248,255"/>
    <vehicle id="4_18" type="CarB" route="r1" depart="34.000000" departLane="4" departSpeed="20" color="248,248,255"/>
    <vehicle id="1_18" type="CarB" route="r1" depart="34.500000" departLane="1" departSpeed="20" color="248,248,255"/>
    <vehicle id="2_18" type="CarB" route="r1" depart="35.000000" departLane="2" departSpeed="20" color="248,248,255"/>
    <vehicle id="3_18" type="CarB" route="r1" depart="35.500000" departLane="3" departSpeed="20" color="248,248,255"/>
    <vehicle id="0_19" type="CarB" route="r1" depart="36.000000" departLane="0" departSpeed="20" color="248,248,255"/>
    <vehicle id="4_19" type="CarB" route="r1" depart="36.000000" departLane="4" departSpeed="20" color="248,248,255"/>
    <vehicle id="1_19" type="CarB" route="r1" depart="36.500000" departLane="1" departSpeed="20" color="248,248,255"/>
    <vehicle id="2_19" type="CarB" route="r1" depart="37.000000" departLane="2" departSpeed="20" color="248,248,255"/>
    <vehicle id="3_19" type="CarB" route="r1" depart="37.500000" departLane="3" departSpeed="20" color="248,248,255"/>
    <vehicle id="0_20" type="CarB" route="r1" depart="38.000000" departLane="0" departSpeed="20" color="248,248,255"/>
    <vehicle id="4_20" type="CarB" route="r1" depart="38.000000" departLane="4" departSpeed="20" color="248,248,255"/>
    <vehicle id="1_20" type="CarB" route="r1" depart="38.500000" departLane="1" departSpeed="20" color="248,248,255"/>
    <vehicle id="2_20" type="CarB" route="r1" depart="39.000000" departLane="2" departSpeed="20" color="248,248,255"/>
    <vehicle id="3_20" type="CarB" route="r1" depart="39.500000" departLane="3" departSpeed="20" color="248,248,255"/>
    <vehicle id="0_21" type="CarB" route="r1" depart="40.000000" departLane="0" departSpeed="20" color="248,248,255"/>
    <vehicle id="4_21" type="CarB" route="r1" depart="40.000000" departLane="4" departSpeed="20" color="248,248,255"/>
    <vehicle id="1_21" type="CarB" route="r1" depart="40.500000" departLane="1" departSpeed="20" color="248,248,255"/>
    <vehicle id="2_21" type="CarB" route="r1" depart="41.000000" departLane="2" departSpeed="20" color="248,248,255"/>
    <vehicle id="3_21" type="CarB" route="r1" depart="41.500000" departLane="3" departSpeed="20" color="248,248,255"/>
    <vehicle id="0_22" type="CarB" route="r1" depart="42.000000" departLane="0" departSpeed="20" color="248,248,255"/>
    <vehicle id="4_22" type="CarB" route="r1" depart="42.000000" departLane="4" departSpeed="20" color="248,248,255"/>
    <vehicle id="1_22" type="CarB" route="r1" depart="42.500000" departLane="1" departSpeed="20" color="248,248,255"/>
    <vehicle id="2_22" type="CarB" route="r1" depart="43.000000" departLane="2" departSpeed="20" color="248,248,255"/>
    <vehicle id="3_22" type="CarB" route="r1" depart="43.500000" departLane="3" departSpeed="20" color="248,248,255"/>
    <vehicle id="0_23" type="CarB" route="r1" depart="44.000000" departLane="0" departSpeed="20" color="248,248,255"/>
    <vehicle id="4_23" type="CarB" route="r1" depart="44.000000" departLane="4" departSpeed="20" color="248,248,255"/>
    <vehicle id="1_23" type="CarB" route="r1" depart="44.500000" departLane="1" departSpeed="20" color="248,248,255"/>
    <vehicle id="2_23" type="CarB" route="r1" depart="45.000000" departLane="2" departSpeed="20" color="248,248,255"/>
    <vehicle id="3_23" type="CarB" route="r1" depart="45.500000" departLane="3" departSpeed="20" color="248,248,255"/>
    <vehicle id="0_24" type="CarB" route="r1" depart="46.000000" departLane="0" departSpeed="20" color="248,248,255"/>
    <vehicle id="4_24" type="CarB" route="r1" depart="46.000000" departLane="4" departSpeed="20" color="248,248,255"/>
    <vehicle id="1_24" type="CarB" route="r1" depart="46.500000" departLane="1" departSpeed="20" color="248,248,255"/>
    <vehicle id="2_24" type="CarB" route="r1" depart="47.000000" departLane="2" departSpeed="20" color="248,248,255"/>
    <vehicle id="3_24" type="CarB" route="r1" depart="47.500000" departLane="3" departSpeed="20" color="248,248,255"/>
    <vehicle id="0_25" type="CarB" route="r1" depart="48.000000" departLane="0" departSpeed="20" color="248,248,255"/>
    <vehicle id="4_25" type="CarB" route="r1" depart="48.000000" departLane="4" departSpeed="20" color="248,248,255"/>
    <vehicle id="1_25" type="CarB" route="r1" depart="48.500000" departLane="1" departSpeed="20" color="248,248,255"/>
    <vehicle id="2_25" type="CarB" route="r1" depart="49.000000" departLane="2" departSpeed="20" color="248,248,255"/>
    <vehicle id="3_25" type="CarB" route="r1" depart="49.500000" departLane="3" departSpeed="20" color="248,248,255"/>
    <vehicle id="0_26" type="CarB" route="r1" depart="50.000000" departLane="0" departSpeed="20" color="248,248,255"/>
    <vehicle id="4_26" type="CarB" route="r1" depart="50.000000" departLane="4" departSpeed="20" color="248,248,255"/>
    <vehicle id="1_26" type="CarB" route="r1" depart="50.500000" departLane="1" departSpeed="20" color="248,248,255"/>
    <vehicle id="2_26" type="CarB" route="r1" depart="51.000000" departLane="2" departSpeed="20" color="248,248,255"/>
    <vehicle id="3_26" type="CarB" route="r1" depart="51.500000" departLane="3" departSpeed="20" color="248,248,255"/>
    <vehicle id="0_27" type="CarB" route="r1" depart="52.000000" departLane="0" departSpeed="20" color="248,248,255"/>
    <vehicle id="4_27" type="CarB" route="r1" depart="52.000000" departLane="4" departSpeed="20" color="248,248,255"/>
    <vehicle id="1_27" type="CarB" route="r1" depart="52.500000" departLane="1" departSpeed="20" color="248,248,255"/>
    <vehicle id="2_27" type="CarB" route="r1" depart="53.000000" departLane="2" departSpeed="20" color="248,248,255"/>
    <vehicle id="3_27" type="CarB" route="r1" depart="53.500000" departLane="3" departSpeed="20" color="248,248,255"/>
    <vehicle id="0_28" type="CarB" route="r1" depart="54.000000" departLane="0" departSpeed="20" color="248,248,255"/>
    <vehicle id="4_28" type="CarB" route="r1" depart="54.000000" departLane="4" departSpeed="20" color="248,248,255"/>
    <vehicle id="1_28" type="CarB" route="r1" depart="54.500000" departLane="1" departSpeed="20" color="248,248,255"/>
    <vehicle id="2_28" type="CarB" route="r1" depart="55.000000" departLane="2" departSpeed="20" color="248,248,255"/>
    <vehicle id="3_28" type="CarB" route="r1" depart="55.500000" departLane="3" departSpeed="20" color="248,248,255"/>
    <vehicle id="0_29" type="CarB" route="r1" depart="56.000000" departLane="0" departSpeed="20" color="248,248,255"/>
    <vehicle id="4_29" type="CarB" route="r1" depart="56.000000" departLane="4" departSpeed="20" color="248,248,255"/>
    <vehicle id="1_29" type="CarB" route="r1" depart="56.500000" departLane="1" departSpeed="20" color="248,248,255"/>
    <vehicle id="2_29" type="CarB" route="r1" depart="57.000000" departLane="2" departSpeed="20" color="248,248,255"/>
    <vehicle id="3_29" type="CarB" route="r1" depart="57.500000" departLane="3" departSpeed="20" color="248,248,255"/>
    <vehicle id="0_30" type="CarB" route="r1" depart="58.000000" departLane="0" departSpeed="20" color="248,248,255"/>
    <vehicle id="4_30" type="CarB" route="r1" depart="58.000000" departLane="4" departSpeed="20" color="248,248,255"/>
    <vehicle id="1_30" type="CarB" route="r1" depart="58.500000" departLane="1" departSpeed="20" color="248,248,255"/>
    <vehicle id="2_30" type="CarB" route="r1" depart="59.000000" departLane="2" departSpeed="20" color="248,248,255"/>
    <vehicle id="3_30" type="CarB" route="r1" depart="59.500000" departLane="3" departSpeed="20" color="248,248,255"/>
    <vehicle id="0_31" type="CarB" route="r1" depart="60.000000" departLane="0" departSpeed="20" color="248,248,255"/>
    <vehicle id="4_31" type="CarB" route="r1" depart="60.000000" departLane="4" departSpeed="20" color="248,248,255"/>
    <vehicle id="1_31" type="CarB" route="r1" depart="60.500000" departLane="1" departSpeed="20" color="248,248,255"/>
    <vehicle id="2_31" type="CarB" route="r1" depart="61.000000" departLane="2" departSpeed="20" color="248,248,255"/>
    <vehicle id="3_31" type="CarB" route="r1" depart="61.500000" departLane="3" departSpeed="20" color="248,248,255"/>
    <vehicle id="0_32" type="CarB" route="r1" depart="62.000000" departLane="0" departSpeed="20" color="248,248,255"/>
    <vehicle id="4_32" type="CarB" route="r1" depart="62.000000" departLane="4" departSpeed="20" color="248,248,255"/>
    <vehicle id="1_32" type="CarB" route="r1" depart="62.500000" departLane="1" departSpeed="20" color="248,248,255"/>
    <vehicle id="2_32" type="CarB" route="r1" depart="63.000000" departLane="2" departSpeed="20" color="248,248,255"/>
    <vehicle id="3_32" type="CarB" route="r1" depart="63.500000" departLane="3" departSpeed="20" color="248,248,255"/>
    <vehicle id="0_33" type="CarB" route="r1" depart="64.000000" departLane="0" departSpeed="20" color="248,248,255"/>
    <vehicle id="4_33" type="CarB" route="r1" depart="64.000000" departLane="4" departSpeed="20" color="248,248,255"/>
    <vehicle id="1_33" type="CarB" route="r1" depart="64.500000" departLane="1" departSpeed="20" color="248,248,255"/>
    <vehicle id="2_33" type="CarB" route="r1" depart="65.000000" departLane="2" departSpeed="20" color="248,248,255"/>
    <vehicle id="3_33" type="CarB" route="r1" depart="65.500000" departLane="3" departSpeed="20" color="248,248,255"/>
    <vehicle id="0_34" type="CarB" route="r1" depart="66.000000" departLane="0" departSpeed="20" color="248,248,255"/>
    <vehicle id="4_34" type="CarB" route="r1" depart="66.000000" departLane="4" departSpeed="20" color="248,248,255"/>
    <vehicle id="1_34" type="CarB" route="r1" depart="66.500000" departLane="1" departSpeed="20" color="248,248,255"/>
    <vehicle id="2_34" type="CarB" route="r1" depart="67.000000" departLane="2" departSpeed="20" color="248,248,255"/>
    <vehicle id="3_34" type="CarB" route="r1" depart="67.500000" departLane="3" departSpeed="20" color="248,248,255"/>
    <vehicle id="0_35" type="CarB" route="r1" depart="68.000000" departLane="0" departSpeed="20" color="248,248,255"/>
    <vehicle id="4_35" type="CarB" route="r1" depart="68.000000" departLane="4" departSpeed="20" color="248,248,255"/>
    <vehicle id="1_35" type="CarB" route="r1" depart="68.500000" departLane="1" departSpeed="20" color="248,248,255"/>
    <vehicle id="2_35" type="CarB" route="r1" depart="69.000000" departLane="2" departSpeed="20" color="248,248,255"/>
    <vehicle id="3_35" type="CarB" route="r1" depart="69.500000" departLane="3" departSpeed="20" color="248,248,255"/>
    <vehicle id="0_36" type="CarB" route="r1" depart="70.000000" departLane="0" departSpeed="20" color="248,248,255"/>
    <vehicle id="4_36" type="CarB" route="r1" depart="70.000000" departLane="4" departSpeed="20" color="248,248,255"/>
    <vehicle id="1_36" type="CarB" route="r1" depart="70.500000" departLane="1" departSpeed="20" color="248,248,255"/>
    <vehicle id="2_36" type="CarB" route="r1" depart="71.000000" departLane="2" departSpeed="20" color="248,248,255"/>
    <vehicle id="3_36" type="CarB" route="r1" depart="71.500000" departLane="3" departSpeed="20" color="248,248,255"/>
    <vehicle id="0_37" type="CarB" route="r1" depart="72.000000" departLane="0" departSpeed="20" color="248,248,255"/>
    <vehicle id="4_37" type="CarB" route="r1" depart="72.000000" departLane="4" departSpeed="20" color="248,248,255"/>
    <vehicle id="1_37" type="CarB" route="r1" depart="72.500000" departLane="1" departSpeed="20" color="248,248,255"/>
    <vehicle id="2_37" type="CarB" route="r1" depart="73.000000" departLane="2" departSpeed="20" color="248,248,255"/>
    <vehicle id="3_37" type="CarB" route="r1" depart="73.500000" departLane="3" departSpeed="20" color="248,248,255"/>
    <vehicle id="0_38" type="CarB" route="r1" depart="74.000000" departLane="0" departSpeed="20" color="248,248,255"/>
    <vehicle id="4_38" type="CarB" route="r1" depart="74.000000" departLane="4" departSpeed="20" color="248,248,255"/>
    <vehicle id="1_38" type="CarB" route="r1" depart="74.500000" departLane="1" departSpeed="20" color="248,248,255"/>
    <vehicle id="2_38" type="CarB" route="r1" depart="75.000000" departLane="2" departSpeed="20" color="248,248,255"/>
    <vehicle id="3_38" type="CarB" route="r1" depart="75.500000" departLane="3" departSpeed="20" color="248,248,255"/>
    <vehicle id="0_39" type="CarB" route="r1" depart="76.000000" departLane="0" departSpeed="20" color="248,248,255"/>
    <vehicle id="4_39" type="CarB" route="r1" depart="76.000000" departLane="4" departSpeed="20" color="248,248,255"/>
    <vehicle id="1_39" type="CarB" route="r1" depart="76.500000" departLane="1" departSpeed="20" color="248,248,255"/>
    <vehicle id="2_39" type="CarB" route="r1" depart="77.000000" departLane="2" departSpeed="20" color="248,248,255"/>
    <vehicle id="3_39" type="CarB" route="r1" depart="77.500000" departLane="3" departSpeed="20" color="248,248,255"/>
    <vehicle id="0_40" type="CarB" route="r1" depart="78.000000" departLane="0" departSpeed="20" color="248,248,255"/>
    <vehicle id="4_40" type="CarB" route="r1" depart="78.000000" departLane="4" departSpeed="20" color="248,248,255"/>
    <vehicle id="1_40" type="CarB" route="r1" depart="78.500000" departLane="1" departSpeed="20" color="248,248,255"/>
    <vehicle id="2_40" type="CarB" route="r1" depart="79.000000" departLane="2" departSpeed="20" color="248,248,255"/>
    <vehicle id="3_40" type="CarB" route="r1" depart="79.500000" departLane="3" departSpeed="20" color="248,248,255"/>
    <vehicle id="0_41" type="CarB" route="r1" depart="80.000000" departLane="0" departSpeed="20" color="248,248,255"/>
    <vehicle id="4_41" type="CarB" route="r1" depart="80.000000" departLane="4" departSpeed="20" color="248,248,255"/>
    <vehicle id="1_41" type="CarB" route="r1" depart="80.500000" departLane="1" departSpeed="20" color="248,248,255"/>
    <vehicle id="2_41" type="CarB" route="r1" depart="81.000000" departLane="2" departSpeed="20" color="248,248,255"/>
    <vehicle id="3_41" type="CarB" route="r1" depart="81.500000" departLane="3" departSpeed="20" color="248,248,255"/>
    <vehicle id="0_42" type="CarB" route="r1" depart="82.000000" departLane="0" departSpeed="20" color="248,248,255"/>
    <vehicle id="4_42" type="CarB" route="r1" depart="82.000000" departLane="4" departSpeed="20" color="248,248,255"/>
    <vehicle id="1_42" type="CarB" route="r1" depart="82.500000" departLane="1" departSpeed="20" color="248,248,255"/>
    <vehicle id="2_42" type="CarB" route="r1" depart="83.000000" departLane="2" departSpeed="20" color="248,248,255"/>
    <vehicle id="3_42" type="CarB" route="r1" depart="83.500000" departLane="3" departSpeed="20" color="248,248,255"/>
    <vehicle id="0_43" type="CarB" route="r1" depart="84.000000" departLane="0" departSpeed="20" color="248,248,255"/>
    <vehicle id="4_43" type="CarB" route="r1" depart="84.000000" departLane="4" departSpeed="20" color="248,248,255"/>
    <vehicle id="1_43" type="CarB" route="r1" depart="84.500000" departLane="1" departSpeed="20" color="248,248,255"/>
    <vehicle id="2_43" type="CarB" route="r1" depart="85.000000" departLane="2" departSpeed="20" color="248,248,255"/>
    <vehicle id="3_43" type="CarB" route="r1" depart="85.500000" departLane="3" departSpeed="20" color="248,248,255"/>
    <vehicle id="0_44" type="CarB" route="r1" depart="86.000000" departLane="0" departSpeed="20" color="248,248,255"/>
    <vehicle id="4_44" type="CarB" route="r1" depart="86.000000" departLane="4" departSpeed="20" color="248,248,255"/>
    <vehicle id="1_44" type="CarB" route="r1" depart="86.500000" departLane="1" departSpeed="20" color="248,248,255"/>
    <vehicle id="2_44" type="CarB" route="r1" depart="87.000000" departLane="2" departSpeed="20" color="248,248,255"/>
    <vehicle id="3_44" type="CarB" route="r1" depart="87.500000" departLane="3" departSpeed="20" color="248,248,255"/>
    <vehicle id="0_45" type="CarB" route="r1" depart="88.000000" departLane="0" departSpeed="20" color="248,248,255"/>
    <vehicle id="4_45" type="CarB" route="r1" depart="88.000000" departLane="4" departSpeed="20" color="248,248,255"/>
    <vehicle id="1_45" type="CarB" route="r1" depart="88.500000" departLane="1" departSpeed="20" color="248,248,255"/>
    <vehicle id="2_45" type="CarB" route="r1" depart="89.000000" departLane="2" departSpeed="20" color="248,248,255"/>
    <vehicle id="3_45" type="CarB" route="r1" depart="89.500000" departLane="3" departSpeed="20" color="248,248,255"/>
    <vehicle id="0_46" type="CarB" route="r1" depart="90.000000" departLane="0" departSpeed="20" color="248,248,255"/>
    <vehicle id="4_46" type="CarB" route="r1" depart="90.000000" departLane="4" departSpeed="20" color="248,248,255"/>
    <vehicle id="1_46" type="CarB" route="r1" depart="90.500000" departLane="1" departSpeed="20" color="248,248,255"/>
    <vehicle id="2_46" type="CarB" route="r1" depart="91.000000" departLane="2" departSpeed="20" color="248,248,255"/>
    <vehicle id="3_46" type="CarB" route="r1" depart="91.500000" departLane="3" departSpeed="20" color="248,248,255"/>
    <vehicle id="0_47" type="CarB" route="r1" depart="92.000000" departLane="0" departSpeed="20" color="248,248,255"/>
    <vehicle id="4_47" type="CarB" route="r1" depart="92.000000" departLane="4" departSpeed="20" color="248,248,255"/>
    <vehicle id="1_47" type="CarB" route="r1" depart="92.500000" departLane="1" departSpeed="20" color="248,248,255"/>
    <vehicle id="2_47" type="CarB" route="r1" depart="93.000000" departLane="2" departSpeed="20" color="248,248,255"/>
    <vehicle id="3_47" type="CarB" route="r1" depart="93.500000" departLane="3" departSpeed="20" color="248,248,255"/>
    <vehicle id="0_48" type="CarB" route="r1" depart="94.000000" departLane="0" departSpeed="20" color="248,248,255"/>
    <vehicle id="4_48" type="CarB" route="r1" depart="94.000000" departLane="4" departSpeed="20" color="248,248,255"/>
    <vehicle id="1_48" type="CarB" route="r1" depart="94.500000" departLane="1" departSpeed="20" color="248,248,255"/>
    <vehicle id="2_48" type="CarB" route="r1" depart="95.000000" departLane="2" departSpeed="20" color="248,248,255"/>
    <vehicle id="3_48" type="CarB" route="r1" depart="95.500000" departLane="3" departSpeed="20" color="248,248,255"/>
    <vehicle id="0_49" type="CarB" route="r1" depart="96.000000" departLane="0" departSpeed="20" color="248,248,255"/>
    <vehicle id="4_49" type="CarB" route="r1" depart="96.000000" departLane="4" departSpeed="20" color="248,248,255"/>
    <vehicle id="1_49" type="CarB" route="r1" depart="96.500000" departLane="1" departSpeed="20" color="248,248,255"/>
    <vehicle id="2_49" type="CarB" route="r1" depart="97.000000" departLane="2" departSpeed="20" color="248,248,255"/>
    <vehicle id="3_49" type="CarB" route="r1" depart="97.500000" departLane="3" departSpeed="20" color="248,248,255"/>
    <vehicle id="0_50" type="CarB" route="r1" depart="98.000000" departLane="0" departSpeed="20" color="248,248,255"/>
    <vehicle id="4_50" type="CarB" route="r1" depart="98.000000" departLane="4" departSpeed="20" color="248,248,255"/>
    <vehicle id="1_50" type="CarB" route="r1" depart="98.500000" departLane="1" departSpeed="20" color="248,248,255"/>
    <vehicle id="2_50" type="CarB" route="r1" depart="99.000000" departLane="2" departSpeed="20" color="248,248,255"/>
    <vehicle id="3_50" type="CarB" route="r1" depart="99.500000" departLane="3" departSpeed="20" color="248,248,255"/>